<?xml version="1.0" encoding="UTF-8"?>

<!-- generated on ven 23 set 2022, 01:26:22 by Eclipse SUMO netedit Version 1.8.0
<configuration xmlns:xsi="http://www.w3.org/2001/XMLSchema-instance" xsi:noNamespaceSchemaLocation="http://sumo.dlr.de/xsd/netconvertConfiguration.xsd">

    <input>
        <sumo-net-file value="/home/toore/Scrivania/Tirocinio/map.net.xml"/>
    </input>

    <output>
        <output-file value="/home/toore/Scrivania/Tirocinio/map.net.xml"/>
    </output>

    <processing>
        <geometry.min-radius.fix.railways value="false"/>
        <geometry.max-grade.fix value="false"/>
        <offset.disable-normalization value="true"/>
        <lefthand value="false"/>
    </processing>

    <junctions>
        <no-turnarounds value="true"/>
        <junctions.corner-detail value="5"/>
        <junctions.limit-turn-speed value="5.5"/>
        <rectangular-lane-cut value="false"/>
    </junctions>

    <pedestrian>
        <walkingareas value="false"/>
    </pedestrian>

    <netedit>
        <route-files value="/home/toore/Scrivania/Tirocinio/map.rou.xml"/>
    </netedit>

    <report>
        <aggregate-warnings value="5"/>
    </report>

</configuration>
-->

<routes xmlns:xsi="http://www.w3.org/2001/XMLSchema-instance" xsi:noNamespaceSchemaLocation="http://sumo.dlr.de/xsd/routes_file.xsd">
    <route edges="-648461872#5 648461872#4 163030665#0" color="yellow" id="route_0"/>
    <route edges="194798217#2" color="yellow" id="route_1"/>
    <route edges="-194801610 -194798222#2 -194798222#1 194798222#1 -194798222#1 -194798222#0 -163030665#1 -648461872#5 26832265#0 26832265#1 -194798205#1 14673309#0 -14673309#0 14673309#0 -194798232#0 194798233 -194798233 194798232#0 -194798232#0 194798233 390267238#1 -390267238#1 -390267238#0 390267238#0 -194798233 194798232#0 14673309#1 -194798225#0 194798225#0 14673309#2 -14673309#2 194798225#1 -194798225#1 -14673309#1 194798232#1 -194798232#1 -14673309#0 14673309#0 -194798232#0 194798233 -194798233 194798232#0 -14673309#0 -194798205#0 -163030665#2 194798222#0 194798222#1 194798222#2 194798222#3 194801611 -194801611 194798222#4 -194801608#0 194801608#0 -194798222#4 194798222#4 -194798222#4 -194798222#3 194798222#3 -194798222#3 194798222#3 194798222#4 194798222#5 -194798222#5 194798222#5 -194798222#5 194801608#1 -194801608#1 -194798222#4 -194798222#3 194801610 -194801610 -194798222#2 194798222#2 -194798222#2 476287766 648461872#2 648461872#3 26832265#0 194798222#1 -194801609 194801609 -194801609 194801609 -194798222#1 194798222#1 476287766 -648461872#1 648461872#1 648461872#2 -648461872#2 648461872#2 648461872#3 -648461872#3 648461872#3 648461872#4 -648461872#5 648461872#4 163030665#0 -163030665#1 163030665#0 163030665#2 187069602 -187069602 -163030665#2 -163030665#1 194921858#0 194921858#2 194921858#3 194921858#4 194798217#0 194798217#1 194798217#2 -194798217#2 194798217#2 194798216#0 194798216#1 194798216#0 194798211 -187069602 -163030665#2 -163030665#1 172857570#0 172857570#1 172857570#3 -172857570#3 -172857570#2 172857570#1 -172857570#2 -172857570#0 -648461872#5 -648461872#3 -648461872#2 -648461872#1 -648461872#0 194635254#1 -194635254#1 194635254#1 194635254#2 -194635254#2 194635254#2 194635254#3 -194635254#3 194635254#3 194635254#4 194635254#5 -194635254#5" color="yellow" id="route_2"/>
    <route edges="194640226 -194640226 194640226 194640227 28167091#0 28167091#1 28167091#2 28167091#3 28167091#4 28167091#5 28167091#6 28167931#0 -28167931#0 -28167091#6 28167091#6 -28167091#6 -28167091#5 -28167091#4 28167091#4 -28167091#4 -28167091#3 -28167091#2 -28167091#1 -28167091#0 28167091#0 28167091#1 28167091#2 -28167091#2 28167091#2 28167091#3 28167091#4 -28167091#4" color="yellow" id="route_3"/>
    <route edges="28167931#3 -28167931#3 -28167931#2 28167931#2 -28167931#2 -28167931#1 28167931#1" color="yellow" id="route_4"/>
    <route edges="gneE5" color="yellow" id="route_5"/>
    <route edges="-28167386 28167386 -28167386 -194635254#2 194635254#2 -194635254#2 -194635254#1 194635254#1 194640226 -194640226 194635254#2 -194635254#2 194635254#2 194635254#3 -194635254#3 194635254#3 194635254#4 194635254#5 -194635254#5 -194635254#4 194635254#4 -194635254#4 194635254#4 194635254#5 23583015#0 -23583015#0 194635254#6 194635254#7 -194635254#7 -194635254#6 194635254#6 194635254#7 -194635254#7 194635254#7 194635254#8 -194635254#8 194635254#8 -194635254#8 -194635254#7 194635254#7 -194635254#7" color="yellow" id="route_6"/>
    <route edges="-23583015#1 23583015#1 28167388 -28167624#2 -28167624#1 -28167624#0 194635266#2 194635266#3 -194635263#2 -194635263#1 -194635263#0 194635263#0 -194635263#0" color="yellow" id="route_7"/>
    <route edges="gneE2" color="yellow" id="route_8"/>
    <route edges="gneE10" color="yellow" id="route_9"/>
    <vehicle id="vehicle_10" depart="0.00" route="route_4"/>
    <vehicle id="vehicle_11" depart="0.00" route="route_4"/>
    <vehicle id="vehicle_12" depart="0.00" route="route_4"/>
    <vehicle id="vehicle_13" depart="0.00" route="route_0"/>
    <vehicle id="vehicle_14" depart="0.00" route="route_0"/>
    <vehicle id="vehicle_18" depart="0.00" route="route_2"/>
    <vehicle id="vehicle_19" depart="0.00" route="route_6"/>
    <vehicle id="vehicle_20" depart="0.00" route="route_6"/>
    <vehicle id="vehicle_21" depart="0.00" route="route_6"/>
    <vehicle id="vehicle_22" depart="0.00" route="route_6"/>
    <vehicle id="vehicle_23" depart="0.00" route="route_6"/>
    <vehicle id="vehicle_24" depart="0.00" route="route_6"/>
    <vehicle id="vehicle_25" depart="0.00" route="route_2"/>
    <vehicle id="vehicle_26" depart="0.00" route="route_7"/>
    <vehicle id="vehicle_27" depart="0.00" route="route_7"/>
    <vehicle id="vehicle_28" depart="0.00" route="route_7"/>
    <vehicle id="vehicle_29" depart="0.00" route="route_7"/>
    <vehicle id="vehicle_3" depart="0.00" route="route_2"/>
    <vehicle id="vehicle_30" depart="0.00" route="route_7"/>
    <vehicle id="vehicle_31" depart="0.00" route="route_7"/>
    <vehicle id="vehicle_32" depart="0.00" route="route_7"/>
    <vehicle id="vehicle_33" depart="0.00" route="route_7"/>
    <vehicle id="vehicle_34" depart="0.00" route="route_7"/>
    <vehicle id="vehicle_35" depart="0.00" route="route_7"/>
    <vehicle id="vehicle_36" depart="0.00" route="route_7"/>
    <vehicle id="vehicle_37" depart="0.00" route="route_7"/>
    <vehicle id="vehicle_38" depart="0.00" route="route_7"/>
    <vehicle id="vehicle_39" depart="0.00" route="route_8"/>
    <vehicle id="vehicle_4" depart="0.00" route="route_2"/>
    <vehicle id="vehicle_40" depart="0.00" route="route_8"/>
    <vehicle id="vehicle_41" depart="0.00" route="route_6"/>
    <vehicle id="vehicle_42" depart="0.00" route="route_7"/>
    <vehicle id="vehicle_5" depart="0.00" route="route_2"/>
    <vehicle id="vehicle_6" depart="0.00" route="route_2"/>
    <vehicle id="vehicle_7" depart="0.00" route="route_2"/>
    <vehicle id="vehicle_8" depart="0.00" route="route_4"/>
    <vehicle id="vehicle_9" depart="0.00" route="route_4"/>
    <person id="person_0" depart="0.00">
        <walk from="194921858#0" to="194921858#0"/>
    </person>
    <vehicle id="vehicle_0" depart="0.00">
        <route edges="-194921858#2" color="cyan"/>
    </vehicle>
    <vehicle id="vehicle_1" depart="0.00">
        <route edges="390267238#0" color="cyan"/>
    </vehicle>
    <vehicle id="vehicle_2" depart="0.00">
        <route edges="-14673309#1 14673309#1 14673309#2 14673309#2 -14673309#2" color="cyan"/>
    </vehicle>
    <flow id="flow_0" begin="0.00" route="route_2" end="3600.00" number="1800"/>
    <flow id="flow_1" begin="0.00" route="route_0" end="3600.00" number="1800"/>
    <flow id="flow_10" begin="0.00" route="route_5" end="3600.00" number="1800"/>
    <flow id="flow_11" begin="0.00" route="route_5" end="3600.00" number="1800"/>
    <flow id="flow_12" begin="0.00" route="route_5" end="3600.00" number="1800"/>
    <flow id="flow_13" begin="0.00" route="route_5" end="3600.00" number="1800"/>
    <flow id="flow_14" begin="0.00" route="route_5" end="3600.00" number="1800"/>
    <flow id="flow_15" begin="0.00" route="route_5" end="3600.00" number="1800"/>
    <flow id="flow_16" begin="0.00" route="route_5" end="3600.00" number="1800"/>
    <flow id="flow_17" begin="0.00" route="route_5" end="3600.00" number="1800"/>
    <flow id="flow_18" begin="0.00" route="route_5" end="3600.00" number="1800"/>
    <flow id="flow_19" begin="0.00" route="route_5" end="3600.00" number="1800"/>
    <flow id="flow_2" begin="0.00" route="route_0" end="3600.00" number="1800"/>
    <flow id="flow_20" begin="0.00" route="route_5" end="3600.00" number="1800"/>
    <flow id="flow_21" begin="0.00" route="route_5" end="3600.00" number="1800"/>
    <flow id="flow_22" begin="0.00" route="route_9" end="3600.00" number="1800"/>
    <flow id="flow_23" begin="0.00" route="route_0" end="3600.00" number="1800"/>
    <flow id="flow_24" begin="0.00" route="route_0" end="3600.00" number="1800"/>
    <flow id="flow_25" begin="0.00" route="route_2" end="3600.00" number="1800"/>
    <flow id="flow_26" begin="0.00" route="route_2" end="3600.00" number="1800"/>
    <flow id="flow_27" begin="0.00" route="route_2" end="3600.00" number="1800"/>
    <flow id="flow_28" begin="0.00" route="route_2" end="3600.00" number="1800"/>
    <flow id="flow_29" begin="0.00" route="route_2" end="3600.00" number="1800"/>
    <flow id="flow_3" begin="0.00" route="route_2" end="3600.00" number="1800"/>
    <flow id="flow_30" begin="0.00" route="route_2" end="3600.00" number="1800"/>
    <flow id="flow_31" begin="0.00" route="route_2" end="3600.00" number="1800"/>
    <flow id="flow_32" begin="0.00" route="route_2" end="3600.00" number="1800"/>
    <flow id="flow_33" begin="0.00" route="route_2" end="3600.00" number="1800"/>
    <flow id="flow_34" begin="0.00" route="route_2" end="3600.00" number="1800"/>
    <flow id="flow_35" begin="0.00" route="route_2" end="3600.00" number="1800"/>
    <flow id="flow_36" begin="0.00" route="route_2" end="3600.00" number="1800"/>
    <flow id="flow_37" begin="0.00" route="route_2" end="3600.00" number="1800"/>
    <flow id="flow_38" begin="0.00" route="route_2" end="3600.00" number="1800"/>
    <flow id="flow_4" begin="0.00" route="route_0" end="3600.00" number="1800"/>
    <flow id="flow_5" begin="0.00" route="route_5" end="3600.00" number="1800"/>
    <flow id="flow_6" begin="0.00" route="route_5" end="3600.00" number="1800"/>
    <flow id="flow_7" begin="0.00" route="route_5" end="3600.00" number="1800"/>
    <flow id="flow_8" begin="0.00" route="route_5" end="3600.00" number="1800"/>
    <flow id="flow_9" begin="0.00" route="route_5" end="3600.00" number="1800"/>
</routes>
