<?xml version="1.0" encoding="UTF-8"?>

<!-- generated on gio 1 dic 2022, 17:44:14 by Eclipse SUMO netedit Version 1.8.0
<configuration xmlns:xsi="http://www.w3.org/2001/XMLSchema-instance" xsi:noNamespaceSchemaLocation="http://sumo.dlr.de/xsd/netconvertConfiguration.xsd">

    <input>
        <osm-files value="/home/toore/2022-12-01-17-36-47/osm_bbox.osm.xml"/>
    </input>

    <projection>
        <proj.utm value="true"/>
    </projection>

    <processing>
        <geometry.remove value="true"/>
    </processing>

    <tls_building>
        <tls.discard-simple value="true"/>
        <tls.guess-signals value="true"/>
    </tls_building>

    <ramp_guessing>
        <ramps.guess value="true"/>
    </ramp_guessing>

    <junctions>
        <junctions.join value="true"/>
    </junctions>

    <netedit>
        <route-files value="/home/toore/Scrivania/Tirocinio/MOdena/Modena.rou.xml"/>
    </netedit>

    <report>
        <aggregate-warnings value="5"/>
    </report>

</configuration>
-->

<routes xmlns:xsi="http://www.w3.org/2001/XMLSchema-instance" xsi:noNamespaceSchemaLocation="http://sumo.dlr.de/xsd/routes_file.xsd">
    <person id="person_0" depart="0.00">
        <personTrip from="655717649#6" to="655717649#4"/>
    </person>
    <person id="person_1" depart="0.00">
        <walk edges="545476127#1 655717649#4 655717649#4 655717649#3 655717649#3 655717649#6 655717649#6 539419146#1 539419146#1 539419136 539419136 655717649#1 655717649#1 655717650#0 655717650#0 655717649#0 655717649#0 545476129#2 545476129#2 655717637 655717637 655717652 655717652 545476129#1 545476129#1 655717644#1"/>
    </person>
</routes>
