<?xml version="1.0" encoding="UTF-8"?>

<!-- generated on Mon Dec  5 11:37:00 2022 by Eclipse SUMO duarouter Version 1.8.0
<configuration xmlns:xsi="http://www.w3.org/2001/XMLSchema-instance" xsi:noNamespaceSchemaLocation="http://sumo.dlr.de/xsd/duarouterConfiguration.xsd">

    <input>
        <net-file value="/home/toore/Tirocinio_SUMO/Scenario/Modena/osm.net.xml"/>
        <route-files value="trips.trips.xml"/>
    </input>

    <output>
        <output-file value="peds.rou.xml"/>
        <alternatives-output value="NUL"/>
    </output>

    <time>
        <begin value="0"/>
        <end value="1000"/>
    </time>

    <report>
        <no-warnings value="true"/>
        <ignore-errors value="true"/>
        <no-step-log value="true"/>
    </report>

</configuration>
-->

<routes xmlns:xsi="http://www.w3.org/2001/XMLSchema-instance" xsi:noNamespaceSchemaLocation="http://sumo.dlr.de/xsd/routes_file.xsd">
    <person id="0" type="DEFAULT_PEDTYPE" depart="0.80">
        <personTrip from="29033731" to="-191987469#1" walkFactor="0.75" costs="86.93"/>
    </person>
    <person id="1" type="DEFAULT_PEDTYPE" depart="1.20">
        <personTrip from="23195803" to="23195328#1" walkFactor="0.75" costs="226.81"/>
    </person>
    <person id="2" type="DEFAULT_PEDTYPE" depart="1.20">
        <personTrip from="998769529" to="995252087#1" walkFactor="0.75" costs="240.41"/>
    </person>
    <person id="3" type="DEFAULT_PEDTYPE" depart="2.80">
        <personTrip from="23195804#0" to="1001467661" walkFactor="0.75" costs="376.72"/>
    </person>
    <person id="4" type="DEFAULT_PEDTYPE" depart="5.20">
        <personTrip from="655717642" to="996022767" walkFactor="0.75" costs="443.07"/>
    </person>
    <person id="5" type="DEFAULT_PEDTYPE" depart="6.80">
        <personTrip from="446644391#1" to="23195329#1" walkFactor="0.75" costs="267.41"/>
    </person>
    <person id="6" type="DEFAULT_PEDTYPE" depart="7.80">
        <personTrip from="-1000553429" to="191979118#0" walkFactor="0.75" costs="198.61"/>
    </person>
    <person id="7" type="DEFAULT_PEDTYPE" depart="8.60">
        <personTrip from="996144772#1" to="-184427426#1" walkFactor="0.75" costs="551.94"/>
    </person>
    <person id="8" type="DEFAULT_PEDTYPE" depart="9.20">
        <personTrip from="23195795" to="123592772#1" walkFactor="0.75" costs="274.10"/>
    </person>
    <person id="9" type="DEFAULT_PEDTYPE" depart="10.60">
        <personTrip from="28729034#0" to="28999595#1" walkFactor="0.75" costs="391.07"/>
    </person>
    <person id="10" type="DEFAULT_PEDTYPE" depart="10.80">
        <personTrip from="28718918#1" to="-522833746" walkFactor="0.75" costs="331.56"/>
    </person>
    <person id="11" type="DEFAULT_PEDTYPE" depart="11.60">
        <personTrip from="190606077#5" to="23195744" walkFactor="0.75" costs="429.09"/>
    </person>
    <person id="12" type="DEFAULT_PEDTYPE" depart="12.00">
        <personTrip from="996144772#1" to="23195752#2" walkFactor="0.75" costs="70.43"/>
    </person>
    <person id="13" type="DEFAULT_PEDTYPE" depart="15.20">
        <personTrip from="28710621#0" to="-485720694" walkFactor="0.75" costs="765.13"/>
    </person>
    <person id="14" type="DEFAULT_PEDTYPE" depart="17.60">
        <personTrip from="23195336#1" to="184427434#0" walkFactor="0.75" costs="307.98"/>
    </person>
    <person id="15" type="DEFAULT_PEDTYPE" depart="17.80">
        <personTrip from="28719193" to="28708932" walkFactor="0.75" costs="166.36"/>
    </person>
    <person id="16" type="DEFAULT_PEDTYPE" depart="19.80">
        <personTrip from="647483358" to="23195754#4" walkFactor="0.75" costs="159.58"/>
    </person>
    <person id="17" type="DEFAULT_PEDTYPE" depart="21.20">
        <personTrip from="545660374#1" to="-28710755#2" walkFactor="0.75" costs="366.46"/>
    </person>
    <person id="18" type="DEFAULT_PEDTYPE" depart="24.20">
        <personTrip from="23195749#0" to="190606085" walkFactor="0.75" costs="510.62"/>
    </person>
    <person id="19" type="DEFAULT_PEDTYPE" depart="25.60">
        <personTrip from="29072594" to="1001467661" walkFactor="0.75" costs="359.14"/>
    </person>
    <person id="20" type="DEFAULT_PEDTYPE" depart="27.80">
        <personTrip from="-23195751#0" to="-184427426#3" walkFactor="0.75" costs="595.68"/>
    </person>
    <person id="21" type="DEFAULT_PEDTYPE" depart="28.80">
        <personTrip from="28710755#0" to="193099645#1" walkFactor="0.75" costs="364.98"/>
    </person>
    <person id="22" type="DEFAULT_PEDTYPE" depart="30.00">
        <personTrip from="23195752#1" to="23195502#1" walkFactor="0.75" costs="174.28"/>
    </person>
    <person id="23" type="DEFAULT_PEDTYPE" depart="31.80">
        <personTrip from="997944688#1" to="545660374#1" walkFactor="0.75" costs="263.67"/>
    </person>
    <person id="24" type="DEFAULT_PEDTYPE" depart="35.80">
        <personTrip from="29033735" to="23195500#1" walkFactor="0.75" costs="502.97"/>
    </person>
    <person id="25" type="DEFAULT_PEDTYPE" depart="35.80">
        <personTrip from="28998778#2" to="-522833738" walkFactor="0.75" costs="15.06"/>
    </person>
    <person id="26" type="DEFAULT_PEDTYPE" depart="40.00">
        <personTrip from="-23195751#1" to="191979123" walkFactor="0.75" costs="323.85"/>
    </person>
    <person id="27" type="DEFAULT_PEDTYPE" depart="44.60">
        <personTrip from="539419144" to="606454892" walkFactor="0.75" costs="575.23"/>
    </person>
    <person id="28" type="DEFAULT_PEDTYPE" depart="46.00">
        <personTrip from="23683441#1" to="28718918#1" walkFactor="0.75" costs="344.21"/>
    </person>
    <person id="29" type="DEFAULT_PEDTYPE" depart="46.20">
        <personTrip from="655693841" to="544210703#0" walkFactor="0.75" costs="285.34"/>
    </person>
    <person id="30" type="DEFAULT_PEDTYPE" depart="49.40">
        <personTrip from="655693841" to="-28729524" walkFactor="0.75" costs="406.23"/>
    </person>
    <person id="31" type="DEFAULT_PEDTYPE" depart="49.80">
        <personTrip from="-322548792#10" to="23195800" walkFactor="0.75" costs="275.86"/>
    </person>
    <person id="32" type="DEFAULT_PEDTYPE" depart="50.80">
        <personTrip from="322548792#4" to="29072594" walkFactor="0.75" costs="573.65"/>
    </person>
    <person id="33" type="DEFAULT_PEDTYPE" depart="50.80">
        <personTrip from="23195325#1" to="23195736" walkFactor="0.75" costs="392.36"/>
    </person>
    <person id="34" type="DEFAULT_PEDTYPE" depart="52.00">
        <personTrip from="185271779#1" to="28729524" walkFactor="0.75" costs="145.89"/>
    </person>
    <person id="35" type="DEFAULT_PEDTYPE" depart="52.80">
        <personTrip from="539483276" to="185096716#0" walkFactor="0.75" costs="440.71"/>
    </person>
    <person id="36" type="DEFAULT_PEDTYPE" depart="53.20">
        <personTrip from="28998778#3" to="1095603366#1" walkFactor="0.75" costs="247.22"/>
    </person>
    <person id="37" type="DEFAULT_PEDTYPE" depart="58.40">
        <personTrip from="28710751#0" to="23195501#1" walkFactor="0.75" costs="279.86"/>
    </person>
    <person id="38" type="DEFAULT_PEDTYPE" depart="59.20">
        <personTrip from="23195328#2" to="655717640#1" walkFactor="0.75" costs="324.82"/>
    </person>
    <person id="39" type="DEFAULT_PEDTYPE" depart="65.20">
        <personTrip from="192464446" to="23195804#0" walkFactor="0.75" costs="501.50"/>
    </person>
    <person id="40" type="DEFAULT_PEDTYPE" depart="66.40">
        <personTrip from="539483270" to="23195793" walkFactor="0.75" costs="384.74"/>
    </person>
    <person id="41" type="DEFAULT_PEDTYPE" depart="69.20">
        <personTrip from="23195328#0" to="23195751#1" walkFactor="0.75" costs="313.05"/>
    </person>
    <person id="42" type="DEFAULT_PEDTYPE" depart="71.60">
        <personTrip from="28999595#1" to="23195793" walkFactor="0.75" costs="279.68"/>
    </person>
    <person id="43" type="DEFAULT_PEDTYPE" depart="74.40">
        <personTrip from="29241566#0" to="587561458" walkFactor="0.75" costs="203.32"/>
    </person>
    <person id="44" type="DEFAULT_PEDTYPE" depart="75.60">
        <personTrip from="29241566#0" to="23195804#0" walkFactor="0.75" costs="360.87"/>
    </person>
    <person id="45" type="DEFAULT_PEDTYPE" depart="76.00">
        <personTrip from="23195338" to="655717649#0" walkFactor="0.75" costs="452.96"/>
    </person>
    <person id="46" type="DEFAULT_PEDTYPE" depart="80.40">
        <personTrip from="191987466" to="27119325" walkFactor="0.75" costs="356.16"/>
    </person>
    <person id="47" type="DEFAULT_PEDTYPE" depart="80.40">
        <personTrip from="584987256" to="193099645#0" walkFactor="0.75" costs="536.67"/>
    </person>
    <person id="48" type="DEFAULT_PEDTYPE" depart="80.80">
        <personTrip from="23195751#1" to="193099645#0" walkFactor="0.75" costs="642.02"/>
    </person>
    <person id="49" type="DEFAULT_PEDTYPE" depart="83.00">
        <personTrip from="192464423#1" to="322548792#4" walkFactor="0.75" costs="42.01"/>
    </person>
    <person id="50" type="DEFAULT_PEDTYPE" depart="83.40">
        <personTrip from="-184427426#0" to="539419137#1" walkFactor="0.75" costs="96.58"/>
    </person>
    <person id="51" type="DEFAULT_PEDTYPE" depart="83.40">
        <personTrip from="23195798" to="193099645#0" walkFactor="0.75" costs="484.04"/>
    </person>
    <person id="52" type="DEFAULT_PEDTYPE" depart="85.00">
        <personTrip from="545660374#1" to="1094949085#2" walkFactor="0.75" costs="138.60"/>
    </person>
    <person id="53" type="DEFAULT_PEDTYPE" depart="87.20">
        <personTrip from="28719193" to="1000553429" walkFactor="0.75" costs="510.85"/>
    </person>
    <person id="54" type="DEFAULT_PEDTYPE" depart="87.80">
        <personTrip from="23195750#0" to="23683441#1" walkFactor="0.75" costs="426.19"/>
    </person>
    <person id="55" type="DEFAULT_PEDTYPE" depart="87.80">
        <personTrip from="28718918#1" to="1000553429" walkFactor="0.75" costs="163.19"/>
    </person>
    <person id="56" type="DEFAULT_PEDTYPE" depart="88.20">
        <personTrip from="28710621#1" to="1000553429" walkFactor="0.75" costs="669.24"/>
    </person>
    <person id="57" type="DEFAULT_PEDTYPE" depart="89.00">
        <personTrip from="116632638#2" to="28718922#1" walkFactor="0.75" costs="241.13"/>
    </person>
    <person id="58" type="DEFAULT_PEDTYPE" depart="90.20">
        <personTrip from="191959704#1" to="23195736" walkFactor="0.75" costs="499.48"/>
    </person>
    <person id="59" type="DEFAULT_PEDTYPE" depart="94.20">
        <personTrip from="23195792#0" to="539483270" walkFactor="0.75" costs="373.14"/>
    </person>
    <person id="60" type="DEFAULT_PEDTYPE" depart="97.40">
        <personTrip from="-28718922#1" to="28998778#1" walkFactor="0.75" costs="226.10"/>
    </person>
    <person id="61" type="DEFAULT_PEDTYPE" depart="97.80">
        <personTrip from="23195752#1" to="1095603364#1" walkFactor="0.75" costs="294.23"/>
    </person>
    <person id="62" type="DEFAULT_PEDTYPE" depart="99.40">
        <personTrip from="23195754#1" to="23195328#3" walkFactor="0.75" costs="200.23"/>
    </person>
    <person id="63" type="DEFAULT_PEDTYPE" depart="99.80">
        <personTrip from="998769540#1" to="539419146#1" walkFactor="0.75" costs="331.93"/>
    </person>
    <person id="64" type="DEFAULT_PEDTYPE" depart="100.60">
        <personTrip from="655717644#1" to="23195803" walkFactor="0.75" costs="368.82"/>
    </person>
    <person id="65" type="DEFAULT_PEDTYPE" depart="101.40">
        <personTrip from="1094949085#2" to="23195799#0" walkFactor="0.75" costs="352.25"/>
    </person>
    <person id="66" type="DEFAULT_PEDTYPE" depart="101.80">
        <personTrip from="353382750#1" to="-28710790#1" walkFactor="0.75" costs="325.43"/>
    </person>
    <person id="67" type="DEFAULT_PEDTYPE" depart="103.40">
        <personTrip from="606454892" to="484372692" walkFactor="0.75" costs="554.36"/>
    </person>
    <person id="68" type="DEFAULT_PEDTYPE" depart="106.00">
        <personTrip from="32062050#1" to="193099645#1" walkFactor="0.75" costs="305.55"/>
    </person>
    <person id="69" type="DEFAULT_PEDTYPE" depart="106.40">
        <personTrip from="539483276" to="539483280#1" walkFactor="0.75" costs="91.65"/>
    </person>
    <person id="70" type="DEFAULT_PEDTYPE" depart="107.40">
        <personTrip from="545476129#5" to="29241566#0" walkFactor="0.75" costs="190.25"/>
    </person>
    <person id="71" type="DEFAULT_PEDTYPE" depart="108.40">
        <personTrip from="998798218" to="23195804#0" walkFactor="0.75" costs="369.93"/>
    </person>
    <person id="72" type="DEFAULT_PEDTYPE" depart="108.80">
        <personTrip from="28718922#1" to="996022769#1" walkFactor="0.75" costs="292.18"/>
    </person>
    <person id="73" type="DEFAULT_PEDTYPE" depart="110.20">
        <personTrip from="1095603369#0" to="23195339" walkFactor="0.75" costs="61.25"/>
    </person>
    <person id="74" type="DEFAULT_PEDTYPE" depart="111.80">
        <personTrip from="23195500#1" to="23195502#1" walkFactor="0.75" costs="43.77"/>
    </person>
    <person id="75" type="DEFAULT_PEDTYPE" depart="112.00">
        <personTrip from="191979123" to="116632638#2" walkFactor="0.75" costs="306.26"/>
    </person>
    <person id="76" type="DEFAULT_PEDTYPE" depart="112.20">
        <personTrip from="23683441#1" to="655717649#4" walkFactor="0.75" costs="338.69"/>
    </person>
    <person id="77" type="DEFAULT_PEDTYPE" depart="114.40">
        <personTrip from="29241566#0" to="647789894" walkFactor="0.75" costs="277.28"/>
    </person>
    <person id="78" type="DEFAULT_PEDTYPE" depart="118.20">
        <personTrip from="28719191#5" to="522833732#1" walkFactor="0.75" costs="252.28"/>
    </person>
    <person id="79" type="DEFAULT_PEDTYPE" depart="118.60">
        <personTrip from="23195794" to="998769541#1" walkFactor="0.75" costs="164.58"/>
    </person>
    <person id="80" type="DEFAULT_PEDTYPE" depart="121.60">
        <personTrip from="29033732" to="539483276" walkFactor="0.75" costs="75.74"/>
    </person>
    <person id="81" type="DEFAULT_PEDTYPE" depart="128.40">
        <personTrip from="23195754#4" to="-23196319" walkFactor="0.75" costs="6.13"/>
    </person>
    <person id="82" type="DEFAULT_PEDTYPE" depart="128.80">
        <personTrip from="193099645#2" to="23195500#2" walkFactor="0.75" costs="231.64"/>
    </person>
    <person id="83" type="DEFAULT_PEDTYPE" depart="129.00">
        <personTrip from="191987466" to="28718922#1" walkFactor="0.75" costs="97.24"/>
    </person>
    <person id="84" type="DEFAULT_PEDTYPE" depart="130.00">
        <personTrip from="1002422788" to="997944679#1" walkFactor="0.75" costs="277.51"/>
    </person>
    <person id="85" type="DEFAULT_PEDTYPE" depart="131.20">
        <personTrip from="1001467661" to="190606085" walkFactor="0.75" costs="350.88"/>
    </person>
    <person id="86" type="DEFAULT_PEDTYPE" depart="133.00">
        <personTrip from="28999218" to="-522833746" walkFactor="0.75" costs="439.36"/>
    </person>
    <person id="87" type="DEFAULT_PEDTYPE" depart="133.60">
        <personTrip from="193099645#2" to="28710751#0" walkFactor="0.75" costs="255.32"/>
    </person>
    <person id="88" type="DEFAULT_PEDTYPE" depart="136.20">
        <personTrip from="116632638#1" to="28999218" walkFactor="0.75" costs="519.96"/>
    </person>
    <person id="89" type="DEFAULT_PEDTYPE" depart="136.60">
        <personTrip from="28999595#1" to="522833731#1" walkFactor="0.75" costs="39.30"/>
    </person>
    <person id="90" type="DEFAULT_PEDTYPE" depart="137.20">
        <personTrip from="28719327" to="185096716#1" walkFactor="0.75" costs="91.25"/>
    </person>
    <person id="91" type="DEFAULT_PEDTYPE" depart="137.20">
        <personTrip from="-23195799#0" to="23195744" walkFactor="0.75" costs="443.81"/>
    </person>
    <person id="92" type="DEFAULT_PEDTYPE" depart="138.80">
        <personTrip from="23195752#1" to="606454892" walkFactor="0.75" costs="254.64"/>
    </person>
    <person id="93" type="DEFAULT_PEDTYPE" depart="139.20">
        <personTrip from="29241566#0" to="1000553429" walkFactor="0.75" costs="226.12"/>
    </person>
    <person id="94" type="DEFAULT_PEDTYPE" depart="139.40">
        <personTrip from="-29072597#1" to="993884076#1" walkFactor="0.75" costs="623.45"/>
    </person>
    <person id="95" type="DEFAULT_PEDTYPE" depart="140.60">
        <personTrip from="-23195496" to="-184427426#1" walkFactor="0.75" costs="204.03"/>
    </person>
    <person id="96" type="DEFAULT_PEDTYPE" depart="143.60">
        <personTrip from="-322548792#6" to="545476129#5" walkFactor="0.75" costs="444.18"/>
    </person>
    <person id="97" type="DEFAULT_PEDTYPE" depart="144.00">
        <personTrip from="-28718922#1" to="191871225#2" walkFactor="0.75" costs="307.62"/>
    </person>
    <person id="98" type="DEFAULT_PEDTYPE" depart="147.40">
        <personTrip from="-23195751#0" to="23195794" walkFactor="0.75" costs="549.05"/>
    </person>
    <person id="99" type="DEFAULT_PEDTYPE" depart="147.60">
        <personTrip from="23195336#1" to="28998778#1" walkFactor="0.75" costs="217.80"/>
    </person>
    <person id="100" type="DEFAULT_PEDTYPE" depart="147.80">
        <personTrip from="23195750#3" to="185271780#1" walkFactor="0.75" costs="490.72"/>
    </person>
    <person id="101" type="DEFAULT_PEDTYPE" depart="148.00">
        <personTrip from="-28710755#2" to="191959712#0" walkFactor="0.75" costs="184.48"/>
    </person>
    <person id="102" type="DEFAULT_PEDTYPE" depart="148.80">
        <personTrip from="322548792#1" to="-184427426#0" walkFactor="0.75" costs="661.48"/>
    </person>
    <person id="103" type="DEFAULT_PEDTYPE" depart="152.00">
        <personTrip from="-184427426#3" to="-32062050#0" walkFactor="0.75" costs="324.36"/>
    </person>
    <person id="104" type="DEFAULT_PEDTYPE" depart="153.00">
        <personTrip from="545476129#5" to="184427426#0" walkFactor="0.75" costs="142.74"/>
    </person>
    <person id="105" type="DEFAULT_PEDTYPE" depart="153.80">
        <personTrip from="998769537" to="29241566#0" walkFactor="0.75" costs="136.69"/>
    </person>
    <person id="106" type="DEFAULT_PEDTYPE" depart="154.60">
        <personTrip from="23683441#0" to="23195328#3" walkFactor="0.75" costs="314.69"/>
    </person>
    <person id="107" type="DEFAULT_PEDTYPE" depart="158.60">
        <personTrip from="116985957#0" to="28710621#4" walkFactor="0.75" costs="286.91"/>
    </person>
    <person id="108" type="DEFAULT_PEDTYPE" depart="160.00">
        <personTrip from="28710934" to="1002422790" walkFactor="0.75" costs="488.32"/>
    </person>
    <person id="109" type="DEFAULT_PEDTYPE" depart="160.80">
        <personTrip from="23196322#0" to="998769533" walkFactor="0.75" costs="316.95"/>
    </person>
    <person id="110" type="DEFAULT_PEDTYPE" depart="162.00">
        <personTrip from="452767836#1" to="545660375#0" walkFactor="0.75" costs="381.89"/>
    </person>
    <person id="111" type="DEFAULT_PEDTYPE" depart="162.80">
        <personTrip from="-23195799#0" to="192464423#1" walkFactor="0.75" costs="471.37"/>
    </person>
    <person id="112" type="DEFAULT_PEDTYPE" depart="162.80">
        <personTrip from="28709110#1" to="584987256" walkFactor="0.75" costs="394.88"/>
    </person>
    <person id="113" type="DEFAULT_PEDTYPE" depart="166.40">
        <personTrip from="28710934" to="23195501#1" walkFactor="0.75" costs="434.01"/>
    </person>
    <person id="114" type="DEFAULT_PEDTYPE" depart="166.40">
        <personTrip from="28708935#0" to="545496366#1" walkFactor="0.75" costs="121.37"/>
    </person>
    <person id="115" type="DEFAULT_PEDTYPE" depart="166.60">
        <personTrip from="28719327" to="-185271779#1" walkFactor="0.75" costs="246.41"/>
    </person>
    <person id="116" type="DEFAULT_PEDTYPE" depart="166.80">
        <personTrip from="190606085" to="-184427426#1" walkFactor="0.75" costs="331.51"/>
    </person>
    <person id="117" type="DEFAULT_PEDTYPE" depart="167.60">
        <personTrip from="28718918#1" to="23195339" walkFactor="0.75" costs="296.31"/>
    </person>
    <person id="118" type="DEFAULT_PEDTYPE" depart="168.40">
        <personTrip from="28729752" to="23195503" walkFactor="0.75" costs="339.30"/>
    </person>
    <person id="119" type="DEFAULT_PEDTYPE" depart="168.60">
        <personTrip from="23195751#2" to="23195502#1" walkFactor="0.75" costs="264.04"/>
    </person>
    <person id="120" type="DEFAULT_PEDTYPE" depart="170.60">
        <personTrip from="191871225#2" to="23195752#2" walkFactor="0.75" costs="295.02"/>
    </person>
    <person id="121" type="DEFAULT_PEDTYPE" depart="174.80">
        <personTrip from="655693839" to="-184427426#0" walkFactor="0.75" costs="308.62"/>
    </person>
    <person id="122" type="DEFAULT_PEDTYPE" depart="175.40">
        <personTrip from="29072594" to="484372692" walkFactor="0.75" costs="210.10"/>
    </person>
    <person id="123" type="DEFAULT_PEDTYPE" depart="175.60">
        <personTrip from="461160629" to="29033731" walkFactor="0.75" costs="28.19"/>
    </person>
    <person id="124" type="DEFAULT_PEDTYPE" depart="176.20">
        <personTrip from="23195792#0" to="545476129#5" walkFactor="0.75" costs="100.00"/>
    </person>
    <person id="125" type="DEFAULT_PEDTYPE" depart="177.80">
        <personTrip from="998769533" to="28709110#1" walkFactor="0.75" costs="240.93"/>
    </person>
    <person id="126" type="DEFAULT_PEDTYPE" depart="178.00">
        <personTrip from="28719192" to="23195792#0" walkFactor="0.75" costs="413.32"/>
    </person>
    <person id="127" type="DEFAULT_PEDTYPE" depart="178.80">
        <personTrip from="-23195499#2" to="1000553428" walkFactor="0.75" costs="347.31"/>
    </person>
    <person id="128" type="DEFAULT_PEDTYPE" depart="178.80">
        <personTrip from="23195500#1" to="193099645#2" walkFactor="0.75" costs="177.75"/>
    </person>
    <person id="129" type="DEFAULT_PEDTYPE" depart="179.00">
        <personTrip from="522833753" to="539419144" walkFactor="0.75" costs="216.41"/>
    </person>
    <person id="130" type="DEFAULT_PEDTYPE" depart="180.20">
        <personTrip from="23195792#0" to="-23195496" walkFactor="0.75" costs="201.42"/>
    </person>
    <person id="131" type="DEFAULT_PEDTYPE" depart="180.20">
        <personTrip from="996144772#1" to="997769913#1" walkFactor="0.75" costs="117.20"/>
    </person>
    <person id="132" type="DEFAULT_PEDTYPE" depart="180.80">
        <personTrip from="23195340#1" to="-322548792#1" walkFactor="0.75" costs="187.77"/>
    </person>
    <person id="133" type="DEFAULT_PEDTYPE" depart="181.60">
        <personTrip from="1000553429" to="-28710755#0" walkFactor="0.75" costs="577.54"/>
    </person>
    <person id="134" type="DEFAULT_PEDTYPE" depart="184.80">
        <personTrip from="23195338" to="452767836#1" walkFactor="0.75" costs="148.07"/>
    </person>
    <person id="135" type="DEFAULT_PEDTYPE" depart="185.20">
        <personTrip from="185096716#1" to="28999218" walkFactor="0.75" costs="526.20"/>
    </person>
    <person id="136" type="DEFAULT_PEDTYPE" depart="187.00">
        <personTrip from="539419138" to="29033803" walkFactor="0.75" costs="134.08"/>
    </person>
    <person id="137" type="DEFAULT_PEDTYPE" depart="187.60">
        <personTrip from="-184427426#3" to="539483270" walkFactor="0.75" costs="0.00"/>
    </person>
    <person id="138" type="DEFAULT_PEDTYPE" depart="188.20">
        <personTrip from="647483360#0" to="192464424" walkFactor="0.75" costs="560.22"/>
    </person>
    <person id="139" type="DEFAULT_PEDTYPE" depart="190.00">
        <personTrip from="-322548792#4" to="539483280#1" walkFactor="0.75" costs="531.03"/>
    </person>
    <person id="140" type="DEFAULT_PEDTYPE" depart="194.40">
        <personTrip from="-322548792#1" to="-998769538#0" walkFactor="0.75" costs="212.68"/>
    </person>
    <person id="141" type="DEFAULT_PEDTYPE" depart="195.20">
        <personTrip from="461160629" to="996364918" walkFactor="0.75" costs="471.35"/>
    </person>
    <person id="142" type="DEFAULT_PEDTYPE" depart="195.40">
        <personTrip from="191959712#0" to="28710621#1" walkFactor="0.75" costs="348.05"/>
    </person>
    <person id="143" type="DEFAULT_PEDTYPE" depart="200.60">
        <personTrip from="28998663" to="193099645#0" walkFactor="0.75" costs="263.54"/>
    </person>
    <person id="144" type="DEFAULT_PEDTYPE" depart="201.00">
        <personTrip from="-522833746" to="655717644#1" walkFactor="0.75" costs="403.04"/>
    </person>
    <person id="145" type="DEFAULT_PEDTYPE" depart="202.40">
        <personTrip from="539419146#1" to="28999595#1" walkFactor="0.75" costs="276.35"/>
    </person>
    <person id="146" type="DEFAULT_PEDTYPE" depart="205.40">
        <personTrip from="23195339" to="184427434#0" walkFactor="0.75" costs="365.13"/>
    </person>
    <person id="147" type="DEFAULT_PEDTYPE" depart="207.80">
        <personTrip from="23195750#0" to="995252087#1" walkFactor="0.75" costs="281.20"/>
    </person>
    <person id="148" type="DEFAULT_PEDTYPE" depart="208.80">
        <personTrip from="522833724" to="28719125#0" walkFactor="0.75" costs="312.80"/>
    </person>
    <person id="149" type="DEFAULT_PEDTYPE" depart="209.80">
        <personTrip from="655717640#1" to="998769533" walkFactor="0.75" costs="327.07"/>
    </person>
    <person id="150" type="DEFAULT_PEDTYPE" depart="212.20">
        <personTrip from="123592772#1" to="23195794" walkFactor="0.75" costs="275.73"/>
    </person>
    <person id="151" type="DEFAULT_PEDTYPE" depart="212.20">
        <personTrip from="996022767" to="997769913#1" walkFactor="0.75" costs="299.44"/>
    </person>
    <person id="152" type="DEFAULT_PEDTYPE" depart="212.80">
        <personTrip from="539419137#1" to="544210702#0" walkFactor="0.75" costs="418.09"/>
    </person>
    <person id="153" type="DEFAULT_PEDTYPE" depart="215.00">
        <personTrip from="998769533" to="193099645#0" walkFactor="0.75" costs="540.91"/>
    </person>
    <person id="154" type="DEFAULT_PEDTYPE" depart="215.20">
        <personTrip from="28729524" to="-322548792#10" walkFactor="0.75" costs="316.56"/>
    </person>
    <person id="155" type="DEFAULT_PEDTYPE" depart="216.20">
        <personTrip from="522833753" to="28719192" walkFactor="0.75" costs="269.59"/>
    </person>
    <person id="156" type="DEFAULT_PEDTYPE" depart="217.80">
        <personTrip from="997944679#1" to="190606085" walkFactor="0.75" costs="493.81"/>
    </person>
    <person id="157" type="DEFAULT_PEDTYPE" depart="218.60">
        <personTrip from="28710755#0" to="29033803" walkFactor="0.75" costs="591.26"/>
    </person>
    <person id="158" type="DEFAULT_PEDTYPE" depart="219.80">
        <personTrip from="655717640#1" to="23195751#1" walkFactor="0.75" costs="609.44"/>
    </person>
    <person id="159" type="DEFAULT_PEDTYPE" depart="220.20">
        <personTrip from="-28729752" to="192464426" walkFactor="0.75" costs="399.52"/>
    </person>
    <person id="160" type="DEFAULT_PEDTYPE" depart="221.00">
        <personTrip from="190606088#1" to="23195500#2" walkFactor="0.75" costs="429.17"/>
    </person>
    <person id="161" type="DEFAULT_PEDTYPE" depart="222.40">
        <personTrip from="1094949085#0" to="28710621#1" walkFactor="0.75" costs="355.36"/>
    </person>
    <person id="162" type="DEFAULT_PEDTYPE" depart="224.00">
        <personTrip from="539419138" to="23195750#4" walkFactor="0.75" costs="652.98"/>
    </person>
    <person id="163" type="DEFAULT_PEDTYPE" depart="224.00">
        <personTrip from="23683441#0" to="996144772#1" walkFactor="0.75" costs="232.82"/>
    </person>
    <person id="164" type="DEFAULT_PEDTYPE" depart="224.60">
        <personTrip from="28998662#0" to="-522833746" walkFactor="0.75" costs="355.03"/>
    </person>
    <person id="165" type="DEFAULT_PEDTYPE" depart="225.00">
        <personTrip from="190606077#2" to="23195795" walkFactor="0.75" costs="180.72"/>
    </person>
    <person id="166" type="DEFAULT_PEDTYPE" depart="226.00">
        <personTrip from="997944688#1" to="-322548792#1" walkFactor="0.75" costs="81.65"/>
    </person>
    <person id="167" type="DEFAULT_PEDTYPE" depart="234.40">
        <personTrip from="998769540#1" to="28708934#0" walkFactor="0.75" costs="77.36"/>
    </person>
    <person id="168" type="DEFAULT_PEDTYPE" depart="236.20">
        <personTrip from="28710755#2" to="996022767" walkFactor="0.75" costs="202.32"/>
    </person>
    <person id="169" type="DEFAULT_PEDTYPE" depart="236.80">
        <personTrip from="193099645#0" to="544210703#0" walkFactor="0.75" costs="570.92"/>
    </person>
    <person id="170" type="DEFAULT_PEDTYPE" depart="237.60">
        <personTrip from="28998778#1" to="23195749#0" walkFactor="0.75" costs="201.20"/>
    </person>
    <person id="171" type="DEFAULT_PEDTYPE" depart="238.20">
        <personTrip from="446644391#0" to="461160629" walkFactor="0.75" costs="287.98"/>
    </person>
    <person id="172" type="DEFAULT_PEDTYPE" depart="238.40">
        <personTrip from="192464424" to="997944679#1" walkFactor="0.75" costs="457.48"/>
    </person>
    <person id="173" type="DEFAULT_PEDTYPE" depart="239.40">
        <personTrip from="-322548792#5" to="23195501#1" walkFactor="0.75" costs="218.44"/>
    </person>
    <person id="174" type="DEFAULT_PEDTYPE" depart="240.20">
        <personTrip from="23195804#0" to="-522833753" walkFactor="0.75" costs="384.53"/>
    </person>
    <person id="175" type="DEFAULT_PEDTYPE" depart="240.20">
        <personTrip from="23195503" to="23195501#1" walkFactor="0.75" costs="145.67"/>
    </person>
    <person id="176" type="DEFAULT_PEDTYPE" depart="241.00">
        <personTrip from="23195751#1" to="998769532" walkFactor="0.75" costs="337.06"/>
    </person>
    <person id="177" type="DEFAULT_PEDTYPE" depart="243.80">
        <personTrip from="23195744" to="-322548792#10" walkFactor="0.75" costs="209.97"/>
    </person>
    <person id="178" type="DEFAULT_PEDTYPE" depart="244.00">