<?xml version="1.0" encoding="UTF-8"?>

<!-- generated on Fri Dec  2 16:34:50 2022 by Eclipse SUMO duarouter Version 1.8.0
<configuration xmlns:xsi="http://www.w3.org/2001/XMLSchema-instance" xsi:noNamespaceSchemaLocation="http://sumo.dlr.de/xsd/duarouterConfiguration.xsd">

    <input>
        <net-file value="/home/toore/Scrivania/Tirocinio/MOdena/Modena.net.xml"/>
        <route-files value="trips.trips.xml"/>
    </input>

    <output>
        <output-file value="peds.rou.xml"/>
        <alternatives-output value="NUL"/>
    </output>

    <time>
        <begin value="0"/>
        <end value="1000"/>
    </time>

    <report>
        <no-warnings value="true"/>
        <ignore-errors value="true"/>
        <no-step-log value="true"/>
    </report>

</configuration>
-->

<routes xmlns:xsi="http://www.w3.org/2001/XMLSchema-instance" xsi:noNamespaceSchemaLocation="http://sumo.dlr.de/xsd/routes_file.xsd">
    <person id="0" type="DEFAULT_PEDTYPE" depart="2.80">
        <personTrip from="23195339" to="-185271779#1" walkFactor="0.75" costs="191.59"/>
    </person>
    <person id="1" type="DEFAULT_PEDTYPE" depart="3.40">
        <personTrip from="-484338319#0" to="192464446#4" walkFactor="0.75" costs="490.12"/>
    </person>
    <person id="2" type="DEFAULT_PEDTYPE" depart="3.60">
        <personTrip from="192464446#4" to="-620362112#0" walkFactor="0.75" costs="297.99"/>
    </person>
    <person id="3" type="DEFAULT_PEDTYPE" depart="6.00">
        <personTrip from="-23683467#3" to="333903317#1" walkFactor="0.75" costs="626.77"/>
    </person>
    <person id="4" type="DEFAULT_PEDTYPE" depart="7.80">
        <personTrip from="-28702728" to="-116632638#6" walkFactor="0.75" costs="512.04"/>
    </person>
    <person id="5" type="DEFAULT_PEDTYPE" depart="8.20">
        <personTrip from="455159002#0" to="435838968#0" walkFactor="0.75" costs="208.19"/>
    </person>
    <person id="6" type="DEFAULT_PEDTYPE" depart="8.40">
        <personTrip from="-192464442#0" to="28729752" walkFactor="0.75" costs="196.95"/>
    </person>
    <person id="7" type="DEFAULT_PEDTYPE" depart="9.00">
        <personTrip from="23195794" to="192611779#3" walkFactor="0.75" costs="456.73"/>
    </person>
    <person id="8" type="DEFAULT_PEDTYPE" depart="9.80">
        <personTrip from="-620961345#0" to="1094949083" walkFactor="0.75" costs="552.89"/>
    </person>
    <person id="9" type="DEFAULT_PEDTYPE" depart="11.40">
        <personTrip from="191555584" to="-435838968#1" walkFactor="0.75" costs="559.55"/>
    </person>
    <person id="10" type="DEFAULT_PEDTYPE" depart="11.80">
        <personTrip from="655693842#0" to="680627394" walkFactor="0.75" costs="705.48"/>
    </person>
    <person id="11" type="DEFAULT_PEDTYPE" depart="13.00">
        <personTrip from="451455823#3" to="23195501#1" walkFactor="0.75" costs="482.06"/>
    </person>
    <person id="12" type="DEFAULT_PEDTYPE" depart="13.20">
        <personTrip from="-490516821#1" to="29033735" walkFactor="0.75" costs="430.71"/>
    </person>
    <person id="13" type="DEFAULT_PEDTYPE" depart="14.40">
        <personTrip from="-481676086#0" to="184899649#3" walkFactor="0.75" costs="709.57"/>
    </person>
    <person id="14" type="DEFAULT_PEDTYPE" depart="14.40">
        <personTrip from="996144772#1" to="521216687#1" walkFactor="0.75" costs="611.69"/>
    </person>
    <person id="15" type="DEFAULT_PEDTYPE" depart="14.60">
        <personTrip from="-183185682#4" to="-23195499#1" walkFactor="0.75" costs="633.78"/>
    </person>
    <person id="16" type="DEFAULT_PEDTYPE" depart="17.20">
        <personTrip from="190606082" to="121474036#1" walkFactor="0.75" costs="806.41"/>
    </person>
    <person id="17" type="DEFAULT_PEDTYPE" depart="17.80">
        <personTrip from="192402866#1" to="29033732" walkFactor="0.75" costs="444.00"/>
    </person>
    <person id="18" type="DEFAULT_PEDTYPE" depart="19.20">
        <personTrip from="-30130289#2" to="-191979123" walkFactor="0.75" costs="582.59"/>
    </person>
    <person id="19" type="DEFAULT_PEDTYPE" depart="21.80">
        <personTrip from="435838878" to="26777962" walkFactor="0.75" costs="477.78"/>
    </person>
    <person id="20" type="DEFAULT_PEDTYPE" depart="25.40">
        <personTrip from="-629468837#4" to="190611233#2" walkFactor="0.75" costs="0.00"/>
    </person>
    <person id="21" type="DEFAULT_PEDTYPE" depart="26.00">
        <personTrip from="-184119535#0" to="28681367#3" walkFactor="0.75" costs="410.69"/>
    </person>
    <person id="22" type="DEFAULT_PEDTYPE" depart="26.60">
        <personTrip from="28709107#1" to="645957900" walkFactor="0.75" costs="416.35"/>
    </person>
    <person id="23" type="DEFAULT_PEDTYPE" depart="27.60">
        <personTrip from="192611784#2" to="435202308#7" walkFactor="0.75" costs="447.54"/>
    </person>
    <person id="24" type="DEFAULT_PEDTYPE" depart="27.80">
        <personTrip from="28718918#1" to="484338316#3" walkFactor="0.75" costs="533.16"/>
    </person>
    <person id="25" type="DEFAULT_PEDTYPE" depart="29.20">
        <personTrip from="-28729524" to="-184119535#1" walkFactor="0.75" costs="301.27"/>
    </person>
    <person id="26" type="DEFAULT_PEDTYPE" depart="33.80">
        <personTrip from="998769532" to="26777810#2" walkFactor="0.75" costs="478.53"/>
    </person>
    <person id="27" type="DEFAULT_PEDTYPE" depart="35.40">
        <personTrip from="29033735" to="184765384#0" walkFactor="0.75" costs="221.93"/>
    </person>
    <person id="28" type="DEFAULT_PEDTYPE" depart="35.60">
        <personTrip from="184765384#0" to="23195503" walkFactor="0.75" costs="426.76"/>
    </person>
    <person id="29" type="DEFAULT_PEDTYPE" depart="37.00">
        <personTrip from="23680391#2" to="522833741#1" walkFactor="0.75" costs="356.27"/>
    </person>
    <person id="30" type="DEFAULT_PEDTYPE" depart="38.20">
        <personTrip from="639056049" to="191979127#3" walkFactor="0.75" costs="698.53"/>
    </person>
    <person id="31" type="DEFAULT_PEDTYPE" depart="38.60">
        <personTrip from="184119535#1" to="-30130289#2" walkFactor="0.75" costs="501.05"/>
    </person>
    <person id="32" type="DEFAULT_PEDTYPE" depart="41.40">
        <personTrip from="23195338" to="521216687#1" walkFactor="0.75" costs="528.45"/>
    </person>
    <person id="33" type="DEFAULT_PEDTYPE" depart="42.00">
        <personTrip from="191979126#1" to="435202316#1" walkFactor="0.75" costs="602.66"/>
    </person>
    <person id="34" type="DEFAULT_PEDTYPE" depart="43.60">
        <personTrip from="28729034#1" to="33787456#2" walkFactor="0.75" costs="791.20"/>
    </person>
    <person id="35" type="DEFAULT_PEDTYPE" depart="44.00">
        <personTrip from="27119326#4" to="27119332" walkFactor="0.75" costs="426.78"/>
    </person>
    <person id="36" type="DEFAULT_PEDTYPE" depart="44.60">
        <personTrip from="30130289#0" to="30130289#0" walkFactor="0.75" costs="0.00"/>
    </person>
    <person id="37" type="DEFAULT_PEDTYPE" depart="47.20">
        <personTrip from="29033731" to="23683467#2" walkFactor="0.75" costs="481.36"/>
    </person>
    <person id="38" type="DEFAULT_PEDTYPE" depart="49.20">
        <personTrip from="522431205" to="-32062050#0" walkFactor="0.75" costs="282.05"/>
    </person>
    <person id="39" type="DEFAULT_PEDTYPE" depart="50.40">
        <personTrip from="-522431210#1" to="545476129#4" walkFactor="0.75" costs="375.72"/>
    </person>
    <person id="40" type="DEFAULT_PEDTYPE" depart="53.40">
        <personTrip from="-32062050#0" to="116985957#0" walkFactor="0.75" costs="465.05"/>
    </person>
    <person id="41" type="DEFAULT_PEDTYPE" depart="55.60">
        <personTrip from="639056049" to="26605442#1" walkFactor="0.75" costs="720.12"/>
    </person>
    <person id="42" type="DEFAULT_PEDTYPE" depart="56.00">
        <personTrip from="429515616#10" to="192402868#0" walkFactor="0.75" costs="165.49"/>
    </person>
    <person id="43" type="DEFAULT_PEDTYPE" depart="56.00">
        <personTrip from="184119535#5" to="647483354" walkFactor="0.75" costs="463.87"/>
    </person>
    <person id="44" type="DEFAULT_PEDTYPE" depart="57.40">
        <personTrip from="26605322#1" to="998769529" walkFactor="0.75" costs="494.69"/>
    </person>
    <person id="45" type="DEFAULT_PEDTYPE" depart="58.80">
        <personTrip from="539483276" to="333902271#2" walkFactor="0.75" costs="422.73"/>
    </person>
    <person id="46" type="DEFAULT_PEDTYPE" depart="59.20">
        <personTrip from="534225102" to="-184119535#5" walkFactor="0.75" costs="518.25"/>
    </person>
    <person id="47" type="DEFAULT_PEDTYPE" depart="62.20">
        <personTrip from="28702636#2" to="-29034118#0" walkFactor="0.75" costs="526.96"/>
    </person>
    <person id="48" type="DEFAULT_PEDTYPE" depart="63.80">
        <personTrip from="545660375#0" to="28729635" walkFactor="0.75" costs="98.14"/>
    </person>
    <person id="49" type="DEFAULT_PEDTYPE" depart="64.60">
        <personTrip from="-455159010#3" to="190606077#4" walkFactor="0.75" costs="496.94"/>
    </person>
    <person id="50" type="DEFAULT_PEDTYPE" depart="65.40">
        <personTrip from="-75531374" to="-28710755#0" walkFactor="0.75" costs="357.63"/>
    </person>
    <person id="51" type="DEFAULT_PEDTYPE" depart="65.60">
        <personTrip from="486213133" to="-30130289#2" walkFactor="0.75" costs="155.79"/>
    </person>
    <person id="52" type="DEFAULT_PEDTYPE" depart="66.60">
        <personTrip from="116985957#3" to="-27119334#4" walkFactor="0.75" costs="373.81"/>
    </person>
    <person id="53" type="DEFAULT_PEDTYPE" depart="67.80">
        <personTrip from="-435202314#1" to="28729354#3" walkFactor="0.75" costs="626.68"/>
    </person>
    <person id="54" type="DEFAULT_PEDTYPE" depart="68.60">
        <personTrip from="-28719125#0" to="-30130289#2" walkFactor="0.75" costs="625.26"/>
    </person>
    <person id="55" type="DEFAULT_PEDTYPE" depart="71.00">
        <personTrip from="-451455823#4" to="484372692" walkFactor="0.75" costs="441.41"/>
    </person>
    <person id="56" type="DEFAULT_PEDTYPE" depart="71.00">
        <personTrip from="23195499#2" to="28999595#1" walkFactor="0.75" costs="130.00"/>
    </person>
    <person id="57" type="DEFAULT_PEDTYPE" depart="71.40">
        <personTrip from="-30130289#2" to="26605322#0" walkFactor="0.75" costs="87.85"/>
    </person>
    <person id="58" type="DEFAULT_PEDTYPE" depart="71.60">
        <personTrip from="-484338320#1" to="190611233#0" walkFactor="0.75" costs="241.81"/>
    </person>
    <person id="59" type="DEFAULT_PEDTYPE" depart="71.60">
        <personTrip from="-191987466" to="27119334#0" walkFactor="0.75" costs="490.22"/>
    </person>
    <person id="60" type="DEFAULT_PEDTYPE" depart="72.40">
        <personTrip from="28702636#2" to="461160629" walkFactor="0.75" costs="394.12"/>
    </person>
    <person id="61" type="DEFAULT_PEDTYPE" depart="75.60">
        <personTrip from="28710790#1" to="28999595#1" walkFactor="0.75" costs="355.27"/>
    </person>
    <person id="62" type="DEFAULT_PEDTYPE" depart="78.60">
        <personTrip from="191555573#1" to="-184765384#0" walkFactor="0.75" costs="266.70"/>
    </person>
    <person id="63" type="DEFAULT_PEDTYPE" depart="79.40">
        <personTrip from="-522833720#0" to="28142432#1" walkFactor="0.75" costs="777.86"/>
    </person>
    <person id="64" type="DEFAULT_PEDTYPE" depart="81.60">
        <personTrip from="-629468837#4" to="23195804#0" walkFactor="0.75" costs="671.87"/>
    </person>
    <person id="65" type="DEFAULT_PEDTYPE" depart="82.40">
        <personTrip from="1095603364#1" to="545660375#0" walkFactor="0.75" costs="180.95"/>
    </person>
    <person id="66" type="DEFAULT_PEDTYPE" depart="86.60">
        <personTrip from="522833720#0" to="649942985#1" walkFactor="0.75" costs="330.11"/>
    </person>
    <person id="67" type="DEFAULT_PEDTYPE" depart="86.80">
        <personTrip from="435202308#10" to="545476129#5" walkFactor="0.75" costs="332.18"/>
    </person>
    <person id="68" type="DEFAULT_PEDTYPE" depart="87.20">
        <personTrip from="191959704#1" to="116985957#2" walkFactor="0.75" costs="290.19"/>
    </person>
    <person id="69" type="DEFAULT_PEDTYPE" depart="90.20">
        <personTrip from="-184119535#3" to="620362112#2" walkFactor="0.75" costs="327.74"/>
    </person>
    <person id="70" type="DEFAULT_PEDTYPE" depart="90.40">
        <personTrip from="121474036#1" to="28710621#3" walkFactor="0.75" costs="415.45"/>
    </person>
    <person id="71" type="DEFAULT_PEDTYPE" depart="90.80">
        <personTrip from="539483276" to="191555584" walkFactor="0.75" costs="584.22"/>
    </person>
    <person id="72" type="DEFAULT_PEDTYPE" depart="91.20">
        <personTrip from="23195800" to="-28718922#1" walkFactor="0.75" costs="303.57"/>
    </person>
    <person id="73" type="DEFAULT_PEDTYPE" depart="92.20">
        <personTrip from="522833750#1" to="116632638#0" walkFactor="0.75" costs="178.70"/>
    </person>
    <person id="74" type="DEFAULT_PEDTYPE" depart="92.60">
        <personTrip from="28998450#0" to="-27119334#1" walkFactor="0.75" costs="658.48"/>
    </person>
    <person id="75" type="DEFAULT_PEDTYPE" depart="93.00">
        <personTrip from="192402866#1" to="484338325#2" walkFactor="0.75" costs="708.03"/>
    </person>
    <person id="76" type="DEFAULT_PEDTYPE" depart="94.60">
        <personTrip from="383160083" to="28710621#2" walkFactor="0.75" costs="457.48"/>
    </person>
    <person id="78" type="DEFAULT_PEDTYPE" depart="96.40">
        <personTrip from="28709109#0" to="429515616#16" walkFactor="0.75" costs="638.44"/>
    </person>
    <person id="79" type="DEFAULT_PEDTYPE" depart="97.60">
        <personTrip from="995252086#1" to="27148168" walkFactor="0.75" costs="444.68"/>
    </person>
    <person id="80" type="DEFAULT_PEDTYPE" depart="98.80">
        <personTrip from="23195754#4" to="429515616#15" walkFactor="0.75" costs="648.33"/>
    </person>
    <person id="81" type="DEFAULT_PEDTYPE" depart="100.00">
        <personTrip from="455159009#1" to="-184427447#3" walkFactor="0.75" costs="596.87"/>
    </person>
    <person id="82" type="DEFAULT_PEDTYPE" depart="102.00">
        <personTrip from="993758442" to="23195793" walkFactor="0.75" costs="599.00"/>
    </person>
    <person id="83" type="DEFAULT_PEDTYPE" depart="102.40">
        <personTrip from="998885380" to="23195792#0" walkFactor="0.75" costs="231.94"/>
    </person>
    <person id="84" type="DEFAULT_PEDTYPE" depart="102.80">
        <personTrip from="23195503" to="435202308#0" walkFactor="0.75" costs="524.33"/>
    </person>
    <person id="85" type="DEFAULT_PEDTYPE" depart="102.80">
        <personTrip from="23196326#0" to="993930098" walkFactor="0.75" costs="297.02"/>
    </person>
    <person id="86" type="DEFAULT_PEDTYPE" depart="104.00">
        <personTrip from="539483276" to="28681367#3" walkFactor="0.75" costs="208.14"/>
    </person>
    <person id="87" type="DEFAULT_PEDTYPE" depart="104.20">
        <personTrip from="183185682#4" to="-192402888#1" walkFactor="0.75" costs="39.34"/>
    </person>
    <person id="88" type="DEFAULT_PEDTYPE" depart="105.40">
        <personTrip from="-23195495" to="435838968#8" walkFactor="0.75" costs="433.68"/>
    </person>
    <person id="89" type="DEFAULT_PEDTYPE" depart="106.40">
        <personTrip from="-116632638#0" to="190611233#1" walkFactor="0.75" costs="375.33"/>
    </person>
    <person id="90" type="DEFAULT_PEDTYPE" depart="107.00">
        <personTrip from="28710412#2" to="191979123" walkFactor="0.75" costs="263.38"/>
    </person>
    <person id="91" type="DEFAULT_PEDTYPE" depart="107.20">
        <personTrip from="23195744#0" to="-28121204#0" walkFactor="0.75" costs="631.75"/>
    </person>
    <person id="92" type="DEFAULT_PEDTYPE" depart="107.60">
        <personTrip from="-184119535#0" to="-167113237" walkFactor="0.75" costs="543.89"/>
    </person>
    <person id="93" type="DEFAULT_PEDTYPE" depart="109.20">
        <personTrip from="192402888#1" to="28710755#0" walkFactor="0.75" costs="533.73"/>
    </person>
    <person id="94" type="DEFAULT_PEDTYPE" depart="110.60">
        <personTrip from="23196319" to="23195806" walkFactor="0.75" costs="469.67"/>
    </person>
    <person id="95" type="DEFAULT_PEDTYPE" depart="114.60">
        <personTrip from="647467697" to="1001467661" walkFactor="0.75" costs="264.03"/>
    </person>
    <person id="97" type="DEFAULT_PEDTYPE" depart="117.00">
        <personTrip from="-620348242#2" to="-23195499#1" walkFactor="0.75" costs="533.58"/>
    </person>
    <person id="98" type="DEFAULT_PEDTYPE" depart="119.60">
        <personTrip from="184899649#1" to="191555584" walkFactor="0.75" costs="703.90"/>
    </person>
    <person id="99" type="DEFAULT_PEDTYPE" depart="121.20">
        <personTrip from="1094949083" to="191555584" walkFactor="0.75" costs="379.13"/>
    </person>
    <person id="100" type="DEFAULT_PEDTYPE" depart="121.80">
        <personTrip from="26777809#0" to="455159000#6" walkFactor="0.75" costs="281.06"/>
    </person>
    <person id="101" type="DEFAULT_PEDTYPE" depart="128.00">
        <personTrip from="184427434#0" to="23195794" walkFactor="0.75" costs="17.51"/>
    </person>
    <person id="102" type="DEFAULT_PEDTYPE" depart="128.80">
        <personTrip from="661212190" to="28702165#1" walkFactor="0.75" costs="536.20"/>
    </person>
    <person id="103" type="DEFAULT_PEDTYPE" depart="129.20">
        <personTrip from="-455159010#3" to="191555584" walkFactor="0.75" costs="530.37"/>
    </person>
    <person id="104" type="DEFAULT_PEDTYPE" depart="132.80">
        <personTrip from="26777809#0" to="28681367#2" walkFactor="0.75" costs="334.33"/>
    </person>
    <person id="105" type="DEFAULT_PEDTYPE" depart="134.80">
        <personTrip from="23195792#0" to="-184427426#1" walkFactor="0.75" costs="265.28"/>
    </person>
    <person id="106" type="DEFAULT_PEDTYPE" depart="138.80">
        <personTrip from="184119535#1" to="28718918#1" walkFactor="0.75" costs="382.98"/>
    </person>
    <person id="107" type="DEFAULT_PEDTYPE" depart="140.40">
        <personTrip from="26605447" to="27148087#0" walkFactor="0.75" costs="349.25"/>
    </person>
    <person id="108" type="DEFAULT_PEDTYPE" depart="141.20">
        <personTrip from="1095603365#0" to="-30130289#2" walkFactor="0.75" costs="484.58"/>
    </person>
    <person id="109" type="DEFAULT_PEDTYPE" depart="141.40">
        <personTrip from="-629468837#5" to="23195503" walkFactor="0.75" costs="426.76"/>
    </person>
    <person id="110" type="DEFAULT_PEDTYPE" depart="142.40">
        <personTrip from="521216724#0" to="23195340#0" walkFactor="0.75" costs="472.72"/>
    </person>
    <person id="111" type="DEFAULT_PEDTYPE" depart="142.80">
        <personTrip from="-461162695" to="455159000#6" walkFactor="0.75" costs="445.29"/>
    </person>
    <person id="112" type="DEFAULT_PEDTYPE" depart="143.40">
        <personTrip from="1095603365#1" to="-28140035#2" walkFactor="0.75" costs="589.47"/>
    </person>
    <person id="113" type="DEFAULT_PEDTYPE" depart="144.20">
        <personTrip from="28681367#0" to="-184119535#1" walkFactor="0.75" costs="193.74"/>
    </person>
    <person id="114" type="DEFAULT_PEDTYPE" depart="145.00">
        <personTrip from="23195340#0" to="-23195495" walkFactor="0.75" costs="607.47"/>
    </person>
    <person id="115" type="DEFAULT_PEDTYPE" depart="145.20">
        <personTrip from="-184119535#0" to="-629468837#3" walkFactor="0.75" costs="700.88"/>
    </person>
    <person id="116" type="DEFAULT_PEDTYPE" depart="145.60">
        <personTrip from="27119326#10" to="28708935#0" walkFactor="0.75" costs="482.77"/>
    </person>
    <person id="117" type="DEFAULT_PEDTYPE" depart="148.40">
        <personTrip from="534225102" to="191959704#1" walkFactor="0.75" costs="418.22"/>
    </person>
    <person id="118" type="DEFAULT_PEDTYPE" depart="149.40">
        <personTrip from="28708935#0" to="191555579#1" walkFactor="0.75" costs="413.84"/>
    </person>
    <person id="119" type="DEFAULT_PEDTYPE" depart="151.40">
        <personTrip from="-23683467#3" to="-185271780#1" walkFactor="0.75" costs="282.25"/>
    </person>
    <person id="120" type="DEFAULT_PEDTYPE" depart="155.00">
        <personTrip from="192611784#2" to="455159003#0" walkFactor="0.75" costs="117.82"/>
    </person>
    <person id="121" type="DEFAULT_PEDTYPE" depart="161.80">
        <personTrip from="23196324" to="-429515616#16" walkFactor="0.75" costs="399.28"/>
    </person>
    <person id="122" type="DEFAULT_PEDTYPE" depart="162.80">
        <personTrip from="28999595#1" to="184119535#0" walkFactor="0.75" costs="505.31"/>
    </person>
    <person id="123" type="DEFAULT_PEDTYPE" depart="164.00">
        <personTrip from="-429515616#16" to="521216731" walkFactor="0.75" costs="674.99"/>
    </person>
    <person id="124" type="DEFAULT_PEDTYPE" depart="164.00">
        <personTrip from="26777960#1" to="647467697" walkFactor="0.75" costs="606.28"/>
    </person>
    <person id="125" type="DEFAULT_PEDTYPE" depart="164.60">
        <personTrip from="23195792#0" to="28998380#2" walkFactor="0.75" costs="273.10"/>
    </person>
    <person id="126" type="DEFAULT_PEDTYPE" depart="165.00">
        <personTrip from="28709107#1" to="23195338" walkFactor="0.75" costs="180.75"/>
    </person>
    <person id="127" type="DEFAULT_PEDTYPE" depart="172.60">
        <personTrip from="23195754#4" to="28710790#1" walkFactor="0.75" costs="174.11"/>
    </person>
    <person id="128" type="DEFAULT_PEDTYPE" depart="172.60">
        <personTrip from="484338325#4" to="190611233#2" walkFactor="0.75" costs="280.75"/>
    </person>
    <person id="129" type="DEFAULT_PEDTYPE" depart="175.60">
        <personTrip from="-482712298#3" to="-116632638#4" walkFactor="0.75" costs="528.86"/>
    </person>
    <person id="130" type="DEFAULT_PEDTYPE" depart="176.40">
        <personTrip from="-27148088#3" to="28710410#2" walkFactor="0.75" costs="442.32"/>
    </person>
    <person id="131" type="DEFAULT_PEDTYPE" depart="179.20">
        <personTrip from="23195793" to="28142431" walkFactor="0.75" costs="534.16"/>
    </person>
    <person id="132" type="DEFAULT_PEDTYPE" depart="179.80">
        <personTrip from="184427447#3" to="-191742055#5" walkFactor="0.75" costs="122.60"/>
    </person>
    <person id="133" type="DEFAULT_PEDTYPE" depart="181.40">
        <personTrip from="192464436" to="193099645#4" walkFactor="0.75" costs="491.37"/>
    </person>
    <person id="134" type="DEFAULT_PEDTYPE" depart="183.80">
        <personTrip from="-429515616#15" to="521216687#1" walkFactor="0.75" costs="441.62"/>
    </person>
    <person id="135" type="DEFAULT_PEDTYPE" depart="184.80">
        <personTrip from="29033732" to="435202315#1" walkFactor="0.75" costs="395.16"/>
    </person>
    <person id="136" type="DEFAULT_PEDTYPE" depart="185.60">
        <personTrip from="333903331#0" to="184427426#4" walkFactor="0.75" costs="375.06"/>
    </person>
    <person id="137" type="DEFAULT_PEDTYPE" depart="190.60">
        <personTrip from="-27148087#1" to="647483354" walkFactor="0.75" costs="532.81"/>
    </person>
    <person id="138" type="DEFAULT_PEDTYPE" depart="190.80">
        <personTrip from="-333903331#0" to="521216741#1" walkFactor="0.75" costs="598.70"/>
    </person>
    <person id="139" type="DEFAULT_PEDTYPE" depart="192.80">
        <personTrip from="28998450#0" to="429515616#15" walkFactor="0.75" costs="709.51"/>
    </person>
    <person id="140" type="DEFAULT_PEDTYPE" depart="198.60">
        <personTrip from="183185682#1" to="191871225#1" walkFactor="0.75" costs="630.19"/>
    </person>
    <person id="141" type="DEFAULT_PEDTYPE" depart="200.40">
        <personTrip from="-629468837#4" to="429515616#16" walkFactor="0.75" costs="780.59"/>
    </person>
    <person id="142" type="DEFAULT_PEDTYPE" depart="203.40">
        <personTrip from="192611779#3" to="435838968#3" walkFactor="0.75" costs="624.11"/>
    </person>
    <person id="143" type="DEFAULT_PEDTYPE" depart="204.20">
        <personTrip from="429515616#15" to="995252086#0" walkFactor="0.75" costs="751.76"/>
    </person>
    <person id="144" type="DEFAULT_PEDTYPE" depart="204.40">
        <personTrip from="429515616#15" to="451948237#1" walkFactor="0.75" costs="573.20"/>
    </person>
    <person id="145" type="DEFAULT_PEDTYPE" depart="205.60">
        <personTrip from="998798218" to="484338326#0" walkFactor="0.75" costs="681.05"/>
    </person>
    <person id="146" type="DEFAULT_PEDTYPE" depart="207.00">
        <personTrip from="451455823#4" to="23195340#0" walkFactor="0.75" costs="725.31"/>
    </person>
    <person id="147" type="DEFAULT_PEDTYPE" depart="208.40">
        <personTrip from="23195793" to="-190606069#1" walkFactor="0.75" costs="575.31"/>
    </person>
    <person id="148" type="DEFAULT_PEDTYPE" depart="208.80">
        <personTrip from="28729036" to="23195330#1" walkFactor="0.75" costs="309.17"/>
    </person>
    <person id="149" type="DEFAULT_PEDTYPE" depart="209.00">
        <personTrip from="28142432#0" to="451455823#2" walkFactor="0.75" costs="777.48"/>
    </person>
    <person id="150" type="DEFAULT_PEDTYPE" depart="209.20">
        <personTrip from="521216687#1" to="184427447#6" walkFactor="0.75" costs="681.86"/>
    </person>
    <person id="151" type="DEFAULT_PEDTYPE" depart="210.20">
        <personTrip from="27119328#0" to="1094949083" walkFactor="0.75" costs="546.14"/>
    </person>
    <person id="152" type="DEFAULT_PEDTYPE" depart="210.60">
        <personTrip from="27119334#2" to="28710939#1" walkFactor="0.75" costs="6.36"/>
    </person>
    <person id="153" type="DEFAULT_PEDTYPE" depart="215.20">
        <personTrip from="1095603364#1" to="-435838968#7" walkFactor="0.75" costs="449.15"/>
    </person>
    <person id="154" type="DEFAULT_PEDTYPE" depart="219.00">
        <personTrip from="191555584" to="23195806" walkFactor="0.75" costs="512.86"/>
    </person>
    <person id="155" type="DEFAULT_PEDTYPE" depart="220.00">
        <personTrip from="-184765384#0" to="333902271#2" walkFactor="0.75" costs="298.70"/>
    </person>
    <person id="156" type="DEFAULT_PEDTYPE" depart="223.00">
        <personTrip from="-484338312#1" to="461160629" walkFactor="0.75" costs="470.69"/>
    </person>
    <person id="157" type="DEFAULT_PEDTYPE" depart="225.80">
        <personTrip from="23195333#1" to="-183185682#4" walkFactor="0.75" costs="323.96"/>
    </person>
    <person id="158" type="DEFAULT_PEDTYPE" depart="226.80">
        <personTrip from="545722933#1" to="33787456#3" walkFactor="0.75" costs="464.47"/>
    </person>
    <person id="159" type="DEFAULT_PEDTYPE" depart="228.40">
        <personTrip from="429515616#15" to="522431207" walkFactor="0.75" costs="404.37"/>
    </person>
    <person id="160" type="DEFAULT_PEDTYPE" depart="228.40">
        <personTrip from="522431207" to="-32062050#0" walkFactor="0.75" costs="256.07"/>
    </person>
    <person id="161" type="DEFAULT_PEDTYPE" depart="229.60">
        <personTrip from="490516821#1" to="620431735#2" walkFactor="0.75" costs="86.22"/>
    </person>
    <person id="162" type="DEFAULT_PEDTYPE" depart="229.80">
        <personTrip from="455159003#0" to="23195330#1" walkFactor="0.75" costs="251.18"/>
    </person>
    <person id="163" type="DEFAULT_PEDTYPE" depart="232.00">
        <personTrip from="-184119535#1" to="993984189" walkFactor="0.75" costs="647.53"/>
    </person>
    <person id="164" type="DEFAULT_PEDTYPE" depart="237.20">
        <personTrip from="333903313#1" to="1000553428" walkFactor="0.75" costs="556.40"/>
    </person>
    <person id="165" type="DEFAULT_PEDTYPE" depart="238.00">
        <personTrip from="-28121204#0" to="996364918" walkFactor="0.75" costs="392.58"/>
    </person>
    <person id="166" type="DEFAULT_PEDTYPE" depart="238.00">
        <personTrip from="-333903317#0" to="629468828#2" walkFactor="0.75" costs="193.26"/>
    </person>
    <person id="167" type="DEFAULT_PEDTYPE" depart="239.20">
        <personTrip from="545476129#4" to="429515616#15" walkFactor="0.75" costs="608.68"/>
    </person>
    <person id="168" type="DEFAULT_PEDTYPE" depart="239.80">
        <personTrip from="619524656" to="-192402888#1" walkFactor="0.75" costs="223.48"/>
    </person>
    <person id="169" type="DEFAULT_PEDTYPE" depart="240.80">
        <personTrip from="23195339" to="-184765384#0" walkFactor="0.75" costs="684.79"/>
    </person>
    <person id="170" type="DEFAULT_PEDTYPE" depart="240.80">
        <personTrip from="117561950" to="539419144#1" walkFactor="0.75" costs="562.08"/>
    </person>
    <person id="171" type="DEFAULT_PEDTYPE" depart="242.60">
        <personTrip from="28702636#2" to="-192464422" walkFactor="0.75" costs="300.01"/>
    </person>
    <person id="172" type="DEFAULT_PEDTYPE" depart="244.20">
        <personTrip from="333903331#0" to="28998379" walkFactor="0.75" costs="670.39"/>
    </person>
    <person id="173" type="DEFAULT_PEDTYPE" depart="247.00">
        <personTrip from="-192402888#0" to="388696209#1" walkFactor="0.75" costs="669.89"/>
    </person>
    <person id="174" type="DEFAULT_PEDTYPE" depart="248.60">
        <personTrip from="-620348242#1" to="484338326#0" walkFactor="0.75" costs="685.69"/>
    </person>
    <person id="175" type="DEFAULT_PEDTYPE" depart="248.80">
        <personTrip from="-28140035#2" to="28121204#1" walkFactor="0.75" costs="238.36"/>
    </person>
    <person id="177" type="DEFAULT_PEDTYPE" depart="249.80">
        <personTrip from="545476129#5" to="545660375#0" walkFactor="0.75" costs="398.67"/>
    </person>
    <person id="178" type="DEFAULT_PEDTYPE" depart="250.20">
        <personTrip from="522431207" to="-28121204#1" walkFactor="0.75" costs="447.44"/>
    </person>
    <person id="179" type="DEFAULT_PEDTYPE" depart="251.40">
        <personTrip from="28681367#0" to="-429515616#16" walkFactor="0.75" costs="707.82"/>
    </person>
    <person id="180" type="DEFAULT_PEDTYPE" depart="254.00">