<?xml version="1.0" encoding="UTF-8"?>

<!-- generated on Mon Apr  3 20:36:10 2023 by Eclipse SUMO duarouter Version 1.8.0
<configuration xmlns:xsi="http://www.w3.org/2001/XMLSchema-instance" xsi:noNamespaceSchemaLocation="http://sumo.dlr.de/xsd/duarouterConfiguration.xsd">

    <input>
        <net-file value="/home/toore/Tirocinio_SUMO/Scenario/Modena/osm.net.xml"/>
        <route-files value="trips.trips.xml"/>
    </input>

    <output>
        <output-file value="peds.rou.xml"/>
        <alternatives-output value="NUL"/>
    </output>

    <time>
        <begin value="0"/>
        <end value="10000"/>
    </time>

    <report>
        <no-warnings value="true"/>
        <ignore-errors value="true"/>
        <no-step-log value="true"/>
    </report>

</configuration>
-->

<routes xmlns:xsi="http://www.w3.org/2001/XMLSchema-instance" xsi:noNamespaceSchemaLocation="http://sumo.dlr.de/xsd/routes_file.xsd">
    <person id="0" type="DEFAULT_PEDTYPE" depart="0.00">
        <personTrip from="23195328#3" to="23195794" walkFactor="0.75" costs="299.88"/>
    </person>
    <person id="1" type="DEFAULT_PEDTYPE" depart="1.40">
        <personTrip from="647789894" to="322548792#0" walkFactor="0.75" costs="230.05"/>
    </person>
    <person id="2" type="DEFAULT_PEDTYPE" depart="2.80">
        <personTrip from="522833720#0" to="191979122" walkFactor="0.75" costs="43.91"/>
    </person>
    <person id="3" type="DEFAULT_PEDTYPE" depart="4.20">
        <personTrip from="23195752#2" to="28710410#2" walkFactor="0.75" costs="196.70"/>
    </person>
    <person id="4" type="DEFAULT_PEDTYPE" depart="5.60">
        <personTrip from="23196319" to="28710621#4" walkFactor="0.75" costs="230.47"/>
    </person>
    <person id="5" type="DEFAULT_PEDTYPE" depart="7.00">
        <personTrip from="23196319" to="995252090" walkFactor="0.75" costs="249.22"/>
    </person>
    <person id="6" type="DEFAULT_PEDTYPE" depart="8.40">
        <personTrip from="192464446" to="28709110#2" walkFactor="0.75" costs="528.71"/>
    </person>
    <person id="7" type="DEFAULT_PEDTYPE" depart="9.80">
        <personTrip from="322548792#10" to="23195749#0" walkFactor="0.75" costs="174.87"/>
    </person>
    <person id="8" type="DEFAULT_PEDTYPE" depart="11.20">
        <personTrip from="474164620#0" to="997944688#0" walkFactor="0.75" costs="463.19"/>
    </person>
    <person id="9" type="DEFAULT_PEDTYPE" depart="12.60">
        <personTrip from="996144772#1" to="-23196319" walkFactor="0.75" costs="87.72"/>
    </person>
    <person id="10" type="DEFAULT_PEDTYPE" depart="14.00">
        <personTrip from="23195499#2" to="-397927055#0" walkFactor="0.75" costs="74.24"/>
    </person>
    <person id="11" type="DEFAULT_PEDTYPE" depart="15.40">
        <personTrip from="1000553428" to="647789892" walkFactor="0.75" costs="211.37"/>
    </person>
    <person id="12" type="DEFAULT_PEDTYPE" depart="16.80">
        <personTrip from="545660374#1" to="28710621#1" walkFactor="0.75" costs="442.24"/>
    </person>
    <person id="13" type="DEFAULT_PEDTYPE" depart="18.20">
        <personTrip from="-191987466" to="-28998663" walkFactor="0.75" costs="288.30"/>
    </person>
    <person id="14" type="DEFAULT_PEDTYPE" depart="19.60">
        <personTrip from="28719191#5" to="23195744" walkFactor="0.75" costs="90.42"/>
    </person>
    <person id="15" type="DEFAULT_PEDTYPE" depart="21.00">
        <personTrip from="23195798" to="993884076#1" walkFactor="0.75" costs="572.13"/>
    </person>
    <person id="16" type="DEFAULT_PEDTYPE" depart="22.40">
        <personTrip from="522833752#1" to="28719191#5" walkFactor="0.75" costs="183.77"/>
    </person>
    <person id="17" type="DEFAULT_PEDTYPE" depart="23.80">
        <personTrip from="996022767" to="23195329#1" walkFactor="0.75" costs="359.79"/>
    </person>
    <person id="18" type="DEFAULT_PEDTYPE" depart="25.20">
        <personTrip from="995252090" to="-28998663" walkFactor="0.75" costs="365.90"/>
    </person>
    <person id="19" type="DEFAULT_PEDTYPE" depart="26.60">
        <personTrip from="28708934#0" to="998769536#1" walkFactor="0.75" costs="75.96"/>
    </person>
    <person id="20" type="DEFAULT_PEDTYPE" depart="28.00">
        <personTrip from="545660374#1" to="184427426#4" walkFactor="0.75" costs="249.12"/>
    </person>
    <person id="21" type="DEFAULT_PEDTYPE" depart="29.40">
        <personTrip from="998769536#1" to="-322548792#10" walkFactor="0.75" costs="134.97"/>
    </person>
    <person id="22" type="DEFAULT_PEDTYPE" depart="30.80">
        <personTrip from="522833741#1" to="190606088#0" walkFactor="0.75" costs="219.01"/>
    </person>
    <person id="23" type="DEFAULT_PEDTYPE" depart="32.20">
        <personTrip from="-28719125#0" to="545660374#1" walkFactor="0.75" costs="116.73"/>
    </person>
    <person id="24" type="DEFAULT_PEDTYPE" depart="33.60">
        <personTrip from="-23195499#2" to="28999595#1" walkFactor="0.75" costs="199.06"/>
    </person>
    <person id="25" type="DEFAULT_PEDTYPE" depart="35.00">
        <personTrip from="28998778#2" to="29033735" walkFactor="0.75" costs="300.76"/>
    </person>
    <person id="26" type="DEFAULT_PEDTYPE" depart="36.40">
        <personTrip from="-522431210#1" to="995252090" walkFactor="0.75" costs="554.16"/>
    </person>
    <person id="27" type="DEFAULT_PEDTYPE" depart="37.80">
        <personTrip from="-435838563" to="29033731" walkFactor="0.75" costs="216.30"/>
    </person>
    <person id="28" type="DEFAULT_PEDTYPE" depart="39.20">
        <personTrip from="32062050#1" to="322548792#4" walkFactor="0.75" costs="576.96"/>
    </person>
    <person id="29" type="DEFAULT_PEDTYPE" depart="40.60">
        <personTrip from="-28710755#0" to="-23195496" walkFactor="0.75" costs="631.93"/>
    </person>
    <person id="30" type="DEFAULT_PEDTYPE" depart="42.00">
        <personTrip from="185271769" to="28729034#1" walkFactor="0.75" costs="606.69"/>
    </person>
    <person id="31" type="DEFAULT_PEDTYPE" depart="43.40">
        <personTrip from="544210703#0" to="-397927055#0" walkFactor="0.75" costs="327.00"/>
    </person>
    <person id="32" type="DEFAULT_PEDTYPE" depart="44.80">
        <personTrip from="28999595#1" to="28719191#4" walkFactor="0.75" costs="159.58"/>
    </person>
    <person id="33" type="DEFAULT_PEDTYPE" depart="46.20">
        <personTrip from="193099645#0" to="-1000553429" walkFactor="0.75" costs="664.81"/>
    </person>
    <person id="34" type="DEFAULT_PEDTYPE" depart="47.60">
        <personTrip from="28729034#1" to="23195336#1" walkFactor="0.75" costs="242.51"/>
    </person>
    <person id="35" type="DEFAULT_PEDTYPE" depart="49.00">
        <personTrip from="458676577#2" to="23195736" walkFactor="0.75" costs="257.21"/>
    </person>
    <person id="36" type="DEFAULT_PEDTYPE" depart="50.40">
        <personTrip from="28710410#2" to="192464435" walkFactor="0.75" costs="279.56"/>
    </person>
    <person id="37" type="DEFAULT_PEDTYPE" depart="51.80">
        <personTrip from="193099645#2" to="998769531" walkFactor="0.75" costs="244.05"/>
    </person>
    <person id="38" type="DEFAULT_PEDTYPE" depart="53.20">
        <personTrip from="28710621#1" to="1094949085#0" walkFactor="0.75" costs="355.37"/>
    </person>
    <person id="39" type="DEFAULT_PEDTYPE" depart="54.60">
        <personTrip from="-23196319" to="28999218" walkFactor="0.75" costs="455.18"/>
    </person>
    <person id="40" type="DEFAULT_PEDTYPE" depart="56.00">
        <personTrip from="28709110#0" to="23195500#2" walkFactor="0.75" costs="231.75"/>
    </person>
    <person id="41" type="DEFAULT_PEDTYPE" depart="57.40">
        <personTrip from="-23195499#2" to="461160629" walkFactor="0.75" costs="106.84"/>
    </person>
    <person id="42" type="DEFAULT_PEDTYPE" depart="58.80">
        <personTrip from="998769538#1" to="995252090" walkFactor="0.75" costs="278.18"/>
    </person>
    <person id="43" type="DEFAULT_PEDTYPE" depart="60.20">
        <personTrip from="117561950" to="-998769537" walkFactor="0.75" costs="210.87"/>
    </person>
    <person id="44" type="DEFAULT_PEDTYPE" depart="61.60">
        <personTrip from="184427426#3" to="-28998663" walkFactor="0.75" costs="448.12"/>
    </person>
    <person id="45" type="DEFAULT_PEDTYPE" depart="63.00">
        <personTrip from="23195501#1" to="191871225#1" walkFactor="0.75" costs="181.75"/>
    </person>
    <person id="46" type="DEFAULT_PEDTYPE" depart="64.40">
        <personTrip from="28999595#1" to="23195798" walkFactor="0.75" costs="283.53"/>
    </person>
    <person id="47" type="DEFAULT_PEDTYPE" depart="65.80">
        <personTrip from="1094949084" to="28718918#1" walkFactor="0.75" costs="178.43"/>
    </person>
    <person id="48" type="DEFAULT_PEDTYPE" depart="67.20">
        <personTrip from="28999595#1" to="322548792#4" walkFactor="0.75" costs="322.36"/>
    </person>
    <person id="49" type="DEFAULT_PEDTYPE" depart="68.60">
        <personTrip from="193099645#0" to="184427434#0" walkFactor="0.75" costs="388.16"/>
    </person>
    <person id="50" type="DEFAULT_PEDTYPE" depart="70.00">
        <personTrip from="1095603371#1" to="23195502#1" walkFactor="0.75" costs="340.10"/>
    </person>
    <person id="51" type="DEFAULT_PEDTYPE" depart="71.40">
        <personTrip from="28719125#0" to="28710621#1" walkFactor="0.75" costs="417.41"/>
    </person>
    <person id="52" type="DEFAULT_PEDTYPE" depart="72.80">
        <personTrip from="23195736" to="28729524" walkFactor="0.75" costs="298.25"/>
    </person>
    <person id="53" type="DEFAULT_PEDTYPE" depart="74.20">
        <personTrip from="29033731" to="23195792#0" walkFactor="0.75" costs="236.54"/>
    </person>
    <person id="54" type="DEFAULT_PEDTYPE" depart="75.60">
        <personTrip from="192464446" to="23195751#1" walkFactor="0.75" costs="582.89"/>
    </person>
    <person id="55" type="DEFAULT_PEDTYPE" depart="77.00">
        <personTrip from="-32062050#0" to="23195750#0" walkFactor="0.75" costs="688.85"/>
    </person>
    <person id="56" type="DEFAULT_PEDTYPE" depart="78.40">
        <personTrip from="28998778#1" to="606454892" walkFactor="0.75" costs="236.27"/>
    </person>
    <person id="57" type="DEFAULT_PEDTYPE" depart="79.80">
        <personTrip from="190606077#0" to="-27119325" walkFactor="0.75" costs="465.31"/>
    </person>
    <person id="58" type="DEFAULT_PEDTYPE" depart="81.20">
        <personTrip from="1000553428" to="23195750#0" walkFactor="0.75" costs="532.77"/>
    </person>
    <person id="59" type="DEFAULT_PEDTYPE" depart="82.60">
        <personTrip from="-116632638#2" to="184427443" walkFactor="0.75" costs="575.56"/>
    </person>
    <person id="60" type="DEFAULT_PEDTYPE" depart="84.00">
        <personTrip from="998769538#1" to="1095603364#1" walkFactor="0.75" costs="218.70"/>
    </person>
    <person id="61" type="DEFAULT_PEDTYPE" depart="85.40">
        <personTrip from="-23195499#1" to="29033732" walkFactor="0.75" costs="172.42"/>
    </person>
    <person id="62" type="DEFAULT_PEDTYPE" depart="86.80">
        <personTrip from="522497449" to="28710751#0" walkFactor="0.75" costs="327.80"/>
    </person>
    <person id="63" type="DEFAULT_PEDTYPE" depart="88.20">
        <personTrip from="522833721" to="191987468#1" walkFactor="0.75" costs="431.86"/>
    </person>
    <person id="64" type="DEFAULT_PEDTYPE" depart="89.60">
        <personTrip from="23195500#2" to="28719191#5" walkFactor="0.75" costs="525.50"/>
    </person>
    <person id="65" type="DEFAULT_PEDTYPE" depart="91.00">
        <personTrip from="-28729752" to="191987468#1" walkFactor="0.75" costs="278.47"/>
    </person>
    <person id="66" type="DEFAULT_PEDTYPE" depart="92.40">
        <personTrip from="-522833738" to="193099645#0" walkFactor="0.75" costs="460.43"/>
    </person>
    <person id="67" type="DEFAULT_PEDTYPE" depart="93.80">
        <personTrip from="28710689" to="997769913#1" walkFactor="0.75" costs="265.81"/>
    </person>
    <person id="68" type="DEFAULT_PEDTYPE" depart="95.20">
        <personTrip from="997769913#1" to="28719193" walkFactor="0.75" costs="76.17"/>
    </person>
    <person id="69" type="DEFAULT_PEDTYPE" depart="96.60">
        <personTrip from="539483273" to="23195501#1" walkFactor="0.75" costs="340.78"/>
    </person>
    <person id="70" type="DEFAULT_PEDTYPE" depart="98.00">
        <personTrip from="28710621#0" to="23195502#1" walkFactor="0.75" costs="464.88"/>
    </person>
    <person id="71" type="DEFAULT_PEDTYPE" depart="99.40">
        <personTrip from="23195325#0" to="-32062050#0" walkFactor="0.75" costs="458.01"/>
    </person>
    <person id="72" type="DEFAULT_PEDTYPE" depart="100.80">
        <personTrip from="116632638#2" to="-191979121" walkFactor="0.75" costs="397.91"/>
    </person>
    <person id="73" type="DEFAULT_PEDTYPE" depart="102.20">
        <personTrip from="28710755#0" to="996144770" walkFactor="0.75" costs="36.69"/>
    </person>
    <person id="74" type="DEFAULT_PEDTYPE" depart="103.60">
        <personTrip from="-184427426#3" to="549125786#1" walkFactor="0.75" costs="117.96"/>
    </person>
    <person id="75" type="DEFAULT_PEDTYPE" depart="105.00">
        <personTrip from="28999595#1" to="-23195496" walkFactor="0.75" costs="299.01"/>
    </person>
    <person id="76" type="DEFAULT_PEDTYPE" depart="106.40">
        <personTrip from="116632638#0" to="-191979123" walkFactor="0.75" costs="291.61"/>
    </person>
    <person id="77" type="DEFAULT_PEDTYPE" depart="107.80">
        <personTrip from="192464423#1" to="191987468#1" walkFactor="0.75" costs="534.07"/>
    </person>
    <person id="78" type="DEFAULT_PEDTYPE" depart="109.20">
        <personTrip from="28718918#1" to="-322548792#1" walkFactor="0.75" costs="435.48"/>
    </person>
    <person id="79" type="DEFAULT_PEDTYPE" depart="110.60">
        <personTrip from="23195339" to="190606077#2" walkFactor="0.75" costs="409.21"/>
    </person>
    <person id="80" type="DEFAULT_PEDTYPE" depart="112.00">
        <personTrip from="23195800" to="23195500#2" walkFactor="0.75" costs="368.99"/>
    </person>
    <person id="81" type="DEFAULT_PEDTYPE" depart="113.40">
        <personTrip from="-28718922#1" to="1002422790" walkFactor="0.75" costs="286.86"/>
    </person>
    <person id="82" type="DEFAULT_PEDTYPE" depart="114.80">
        <personTrip from="191959712#0" to="116632638#2" walkFactor="0.75" costs="463.40"/>
    </person>
    <person id="83" type="DEFAULT_PEDTYPE" depart="116.20">
        <personTrip from="998769537" to="-191959712#0" walkFactor="0.75" costs="244.27"/>
    </person>
    <person id="84" type="DEFAULT_PEDTYPE" depart="117.60">
        <personTrip from="23195792#0" to="28719125#0" walkFactor="0.75" costs="304.93"/>
    </person>
    <person id="85" type="DEFAULT_PEDTYPE" depart="119.00">
        <personTrip from="-322548792#5" to="998769540#1" walkFactor="0.75" costs="220.42"/>
    </person>
    <person id="86" type="DEFAULT_PEDTYPE" depart="120.40">
        <personTrip from="29033735" to="-116632638#2" walkFactor="0.75" costs="384.47"/>
    </person>
    <person id="87" type="DEFAULT_PEDTYPE" depart="121.80">
        <personTrip from="522833724" to="397927055#0" walkFactor="0.75" costs="452.71"/>
    </person>
    <person id="88" type="DEFAULT_PEDTYPE" depart="123.20">
        <personTrip from="28729036" to="544210702#1" walkFactor="0.75" costs="239.66"/>
    </person>
    <person id="89" type="DEFAULT_PEDTYPE" depart="124.60">
        <personTrip from="-522833746" to="193099645#0" walkFactor="0.75" costs="664.40"/>
    </person>
    <person id="90" type="DEFAULT_PEDTYPE" depart="126.00">
        <personTrip from="996022767" to="191959712#0" walkFactor="0.75" costs="0.00"/>
    </person>
    <person id="91" type="DEFAULT_PEDTYPE" depart="127.40">
        <personTrip from="191979122" to="1000553429" walkFactor="0.75" costs="391.97"/>
    </person>
    <person id="92" type="DEFAULT_PEDTYPE" depart="128.80">
        <personTrip from="23683441#1" to="29033731" walkFactor="0.75" costs="358.63"/>
    </person>
    <person id="93" type="DEFAULT_PEDTYPE" depart="130.20">
        <personTrip from="184427434#0" to="184427434#0" walkFactor="0.75" costs="0.00"/>
    </person>
    <person id="94" type="DEFAULT_PEDTYPE" depart="131.60">
        <personTrip from="998769533" to="647483358" walkFactor="0.75" costs="232.25"/>
    </person>
    <person id="95" type="DEFAULT_PEDTYPE" depart="133.00">
        <personTrip from="1095603365#0" to="461160629" walkFactor="0.75" costs="351.11"/>
    </person>
    <person id="96" type="DEFAULT_PEDTYPE" depart="134.40">
        <personTrip from="116632638#2" to="461160629" walkFactor="0.75" costs="327.93"/>
    </person>
    <person id="97" type="DEFAULT_PEDTYPE" depart="135.80">
        <personTrip from="23195501#1" to="-522833753" walkFactor="0.75" costs="113.88"/>
    </person>
    <person id="98" type="DEFAULT_PEDTYPE" depart="137.20">
        <personTrip from="28998778#1" to="23195501#1" walkFactor="0.75" costs="85.52"/>
    </person>
    <person id="99" type="DEFAULT_PEDTYPE" depart="138.60">
        <personTrip from="544210703#0" to="545660374#1" walkFactor="0.75" costs="143.23"/>
    </person>
    <person id="100" type="DEFAULT_PEDTYPE" depart="140.00">
        <personTrip from="-28719125#0" to="539419137#1" walkFactor="0.75" costs="274.20"/>
    </person>
    <person id="101" type="DEFAULT_PEDTYPE" depart="141.40">
        <personTrip from="29033802" to="23195502#1" walkFactor="0.75" costs="473.56"/>
    </person>
    <person id="102" type="DEFAULT_PEDTYPE" depart="142.80">
        <personTrip from="998798218" to="23195330#1" walkFactor="0.75" costs="226.88"/>
    </person>
    <person id="103" type="DEFAULT_PEDTYPE" depart="144.20">
        <personTrip from="23195500#2" to="28998778#1" walkFactor="0.75" costs="253.86"/>
    </person>
    <person id="104" type="DEFAULT_PEDTYPE" depart="145.60">
        <personTrip from="23196322#0" to="191987466" walkFactor="0.75" costs="79.89"/>
    </person>
    <person id="105" type="DEFAULT_PEDTYPE" depart="147.00">
        <personTrip from="23195339" to="23195800" walkFactor="0.75" costs="378.41"/>
    </person>
    <person id="106" type="DEFAULT_PEDTYPE" depart="148.40">
        <personTrip from="28708934#1" to="28998662#1" walkFactor="0.75" costs="147.45"/>
    </person>
    <person id="107" type="DEFAULT_PEDTYPE" depart="149.80">
        <personTrip from="28719327" to="-191979123" walkFactor="0.75" costs="264.70"/>
    </person>
    <person id="108" type="DEFAULT_PEDTYPE" depart="151.20">
        <personTrip from="23195798" to="28710621#5" walkFactor="0.75" costs="496.55"/>
    </person>
    <person id="109" type="DEFAULT_PEDTYPE" depart="152.60">
        <personTrip from="545660374#1" to="-322548792#10" walkFactor="0.75" costs="207.47"/>
    </person>
    <person id="110" type="DEFAULT_PEDTYPE" depart="154.00">
        <personTrip from="191979127#3" to="-116632638#0" walkFactor="0.75" costs="478.09"/>
    </person>
    <person id="111" type="DEFAULT_PEDTYPE" depart="155.40">
        <personTrip from="484372692" to="190606085" walkFactor="0.75" costs="530.23"/>
    </person>
    <person id="112" type="DEFAULT_PEDTYPE" depart="156.80">
        <personTrip from="-522833746" to="29033802" walkFactor="0.75" costs="415.14"/>
    </person>
    <person id="113" type="DEFAULT_PEDTYPE" depart="158.20">
        <personTrip from="116632638#2" to="193099645#2" walkFactor="0.75" costs="462.17"/>
    </person>
    <person id="114" type="DEFAULT_PEDTYPE" depart="159.60">
        <personTrip from="29033734#2" to="23195793" walkFactor="0.75" costs="263.02"/>
    </person>
    <person id="115" type="DEFAULT_PEDTYPE" depart="161.00">
        <personTrip from="23195500#2" to="28719327" walkFactor="0.75" costs="291.88"/>
    </person>
    <person id="116" type="DEFAULT_PEDTYPE" depart="162.40">
        <personTrip from="655717643" to="322548792#6" walkFactor="0.75" costs="501.92"/>
    </person>
    <person id="117" type="DEFAULT_PEDTYPE" depart="163.80">
        <personTrip from="522497449" to="-116632638#0" walkFactor="0.75" costs="282.37"/>
    </person>
    <person id="118" type="DEFAULT_PEDTYPE" depart="165.20">
        <personTrip from="322548792#10" to="647483358" walkFactor="0.75" costs="123.05"/>
    </person>
    <person id="119" type="DEFAULT_PEDTYPE" depart="166.60">
        <personTrip from="539483276" to="23195752#0" walkFactor="0.75" costs="460.73"/>
    </person>
    <person id="120" type="DEFAULT_PEDTYPE" depart="168.00">
        <personTrip from="190606073" to="1095603365#2" walkFactor="0.75" costs="441.53"/>
    </person>
    <person id="121" type="DEFAULT_PEDTYPE" depart="169.40">
        <personTrip from="522833753" to="995252090" walkFactor="0.75" costs="447.50"/>
    </person>
    <person id="122" type="DEFAULT_PEDTYPE" depart="170.80">
        <personTrip from="23195754#4" to="647789894" walkFactor="0.75" costs="199.54"/>
    </person>
    <person id="123" type="DEFAULT_PEDTYPE" depart="172.20">
        <personTrip from="997769913#1" to="191979118#0" walkFactor="0.75" costs="263.46"/>
    </person>
    <person id="124" type="DEFAULT_PEDTYPE" depart="173.60">
        <personTrip from="995252087#1" to="23195750#4" walkFactor="0.75" costs="269.63"/>
    </person>
    <person id="125" type="DEFAULT_PEDTYPE" depart="175.00">
        <personTrip from="998769540#1" to="584987256" walkFactor="0.75" costs="91.03"/>
    </person>
    <person id="126" type="DEFAULT_PEDTYPE" depart="176.40">
        <personTrip from="190606077#2" to="23195736" walkFactor="0.75" costs="115.15"/>
    </person>
    <person id="127" type="DEFAULT_PEDTYPE" depart="177.80">
        <personTrip from="23195499#2" to="1094949085#0" walkFactor="0.75" costs="266.46"/>
    </person>
    <person id="128" type="DEFAULT_PEDTYPE" depart="179.20">
        <personTrip from="539483276" to="28710410#2" walkFactor="0.75" costs="440.76"/>
    </person>
    <person id="129" type="DEFAULT_PEDTYPE" depart="180.60">
        <personTrip from="-1000553429" to="29072594" walkFactor="0.75" costs="116.89"/>
    </person>
    <person id="130" type="DEFAULT_PEDTYPE" depart="182.00">
        <personTrip from="54704028#1" to="28998778#1" walkFactor="0.75" costs="161.45"/>
    </person>
    <person id="131" type="DEFAULT_PEDTYPE" depart="183.40">
        <personTrip from="-28998663" to="522833721" walkFactor="0.75" costs="170.95"/>
    </person>
    <person id="132" type="DEFAULT_PEDTYPE" depart="184.80">
        <personTrip from="322548792#6" to="23195795" walkFactor="0.75" costs="433.61"/>
    </person>
    <person id="133" type="DEFAULT_PEDTYPE" depart="186.20">
        <personTrip from="23195804#0" to="-23196319" walkFactor="0.75" costs="339.61"/>
    </person>
    <person id="134" type="DEFAULT_PEDTYPE" depart="187.60">
        <personTrip from="545660374#1" to="23195799#0" walkFactor="0.75" costs="335.74"/>
    </person>
    <person id="135" type="DEFAULT_PEDTYPE" depart="189.00">
        <personTrip from="545660374#1" to="28998663" walkFactor="0.75" costs="385.61"/>
    </person>
    <person id="136" type="DEFAULT_PEDTYPE" depart="190.40">
        <personTrip from="655717640#1" to="-28710755#2" walkFactor="0.75" costs="507.26"/>
    </person>
    <person id="137" type="DEFAULT_PEDTYPE" depart="191.80">
        <personTrip from="-998769538#0" to="184427426#0" walkFactor="0.75" costs="447.09"/>
    </person>
    <person id="138" type="DEFAULT_PEDTYPE" depart="193.20">
        <personTrip from="-322548792#5" to="23195792#0" walkFactor="0.75" costs="376.00"/>
    </person>
    <person id="139" type="DEFAULT_PEDTYPE" depart="194.60">
        <personTrip from="539483273" to="23196322#0" walkFactor="0.75" costs="97.08"/>
    </person>
    <person id="140" type="DEFAULT_PEDTYPE" depart="196.00">
        <personTrip from="193099645#2" to="28710755#0" walkFactor="0.75" costs="292.00"/>
    </person>
    <person id="141" type="DEFAULT_PEDTYPE" depart="197.40">
        <personTrip from="1095603364#1" to="-23195499#2" walkFactor="0.75" costs="355.84"/>
    </person>
    <person id="142" type="DEFAULT_PEDTYPE" depart="198.80">
        <personTrip from="28729752" to="545476129#5" walkFactor="0.75" costs="292.98"/>
    </person>
    <person id="143" type="DEFAULT_PEDTYPE" depart="200.20">
        <personTrip from="23195803" to="993930098" walkFactor="0.75" costs="266.81"/>
    </person>
    <person id="144" type="DEFAULT_PEDTYPE" depart="201.60">
        <personTrip from="-191987466" to="23195500#2" walkFactor="0.75" costs="396.62"/>
    </person>
    <person id="145" type="DEFAULT_PEDTYPE" depart="203.00">
        <personTrip from="485720694" to="28710753" walkFactor="0.75" costs="579.37"/>
    </person>
    <person id="146" type="DEFAULT_PEDTYPE" depart="204.40">
        <personTrip from="-32062050#0" to="23195750#3" walkFactor="0.75" costs="619.04"/>
    </person>
    <person id="147" type="DEFAULT_PEDTYPE" depart="205.80">
        <personTrip from="23196319" to="545722933#2" walkFactor="0.75" costs="265.88"/>
    </person>
    <person id="148" type="DEFAULT_PEDTYPE" depart="207.20">
        <personTrip from="123592772#2" to="-28719125#0" walkFactor="0.75" costs="114.04"/>
    </person>
    <person id="149" type="DEFAULT_PEDTYPE" depart="208.60">
        <personTrip from="998769537" to="191959704#1" walkFactor="0.75" costs="180.15"/>
    </person>
    <person id="150" type="DEFAULT_PEDTYPE" depart="210.00">
        <personTrip from="-28719192" to="23195329#1" walkFactor="0.75" costs="150.86"/>
    </person>
    <person id="151" type="DEFAULT_PEDTYPE" depart="211.40">
        <personTrip from="-322548792#10" to="23195329#1" walkFactor="0.75" costs="207.66"/>
    </person>
    <person id="152" type="DEFAULT_PEDTYPE" depart="212.80">
        <personTrip from="-322548792#4" to="28718922#1" walkFactor="0.75" costs="299.17"/>
    </person>
    <person id="153" type="DEFAULT_PEDTYPE" depart="214.20">
        <personTrip from="-23195751#2" to="28719191#4" walkFactor="0.75" costs="396.13"/>
    </person>
    <person id="154" type="DEFAULT_PEDTYPE" depart="215.60">
        <personTrip from="28998778#1" to="-191959706#0" walkFactor="0.75" costs="272.85"/>
    </person>
    <person id="155" type="DEFAULT_PEDTYPE" depart="217.00">
        <personTrip from="191979120" to="539419144" walkFactor="0.75" costs="336.25"/>
    </person>
    <person id="156" type="DEFAULT_PEDTYPE" depart="218.40">
        <personTrip from="996144773" to="655717649#4" walkFactor="0.75" costs="587.01"/>
    </person>
    <person id="157" type="DEFAULT_PEDTYPE" depart="219.80">
        <personTrip from="23195794" to="647483360#0" walkFactor="0.75" costs="491.63"/>
    </person>
    <person id="158" type="DEFAULT_PEDTYPE" depart="221.20">
        <personTrip from="23195500#2" to="-23195499#1" walkFactor="0.75" costs="455.43"/>
    </person>
    <person id="159" type="DEFAULT_PEDTYPE" depart="222.60">
        <personTrip from="23195328#1" to="-23195799#0" walkFactor="0.75" costs="309.46"/>
    </person>
    <person id="160" type="DEFAULT_PEDTYPE" depart="224.00">
        <personTrip from="23195793" to="-191979123" walkFactor="0.75" costs="288.95"/>
    </person>
    <person id="161" type="DEFAULT_PEDTYPE" depart="225.40">
        <personTrip from="23195330#1" to="185271779#1" walkFactor="0.75" costs="156.72"/>
    </person>
    <person id="162" type="DEFAULT_PEDTYPE" depart="226.80">
        <personTrip from="193099645#1" to="484335723#1" walkFactor="0.75" costs="237.72"/>
    </person>
    <person id="163" type="DEFAULT_PEDTYPE" depart="228.20">
        <personTrip from="23195795" to="28710410#2" walkFactor="0.75" costs="450.70"/>
    </person>
    <person id="164" type="DEFAULT_PEDTYPE" depart="229.60">
        <personTrip from="655717650#0" to="-28729524" walkFactor="0.75" costs="414.05"/>
    </person>
    <person id="165" type="DEFAULT_PEDTYPE" depart="231.00">
        <personTrip from="-522833746" to="-522833746" walkFactor="0.75" costs="0.00"/>
    </person>
    <person id="166" type="DEFAULT_PEDTYPE" depart="232.40">
        <personTrip from="23195792#0" to="-322548792#8" walkFactor="0.75" costs="332.96"/>
    </person>
    <person id="167" type="DEFAULT_PEDTYPE" depart="233.80">
        <personTrip from="29072594" to="28709109#0" walkFactor="0.75" costs="578.14"/>
    </person>
    <person id="168" type="DEFAULT_PEDTYPE" depart="235.20">
        <personTrip from="-32062050#0" to="184427434#0" walkFactor="0.75" costs="143.44"/>
    </person>
    <person id="169" type="DEFAULT_PEDTYPE" depart="236.60">
        <personTrip from="185096716#1" to="28718918#1" walkFactor="0.75" costs="379.41"/>
    </person>
    <person id="170" type="DEFAULT_PEDTYPE" depart="238.00">
        <personTrip from="539419144" to="191979127#0" walkFactor="0.75" costs="452.79"/>
    </person>
    <person id="171" type="DEFAULT_PEDTYPE" depart="239.40">
        <personTrip from="322548792#10" to="539483276" walkFactor="0.75" costs="380.61"/>
    </person>
    <person id="172" type="DEFAULT_PEDTYPE" depart="240.80">
        <personTrip from="539419146#1" to="1002422790" walkFactor="0.75" costs="313.96"/>
    </person>
    <person id="173" type="DEFAULT_PEDTYPE" depart="242.20">
        <personTrip from="190606070" to="-28710755#0" walkFactor="0.75" costs="564.39"/>
    </person>
    <person id="174" type="DEFAULT_PEDTYPE" depart="243.60">
        <personTrip from="661212190" to="23195330#1" walkFactor="0.75" costs="433.47"/>
    </person>
    <person id="175" type="DEFAULT_PEDTYPE" depart="245.00">
        <personTrip from="28709109#0" to="1095603365#1" walkFactor="0.75" costs="425.16"/>
    </person>
    <person id="176" type="DEFAULT_PEDTYPE" depart="246.40">
        <personTrip from="190606079#0" to="996022767" walkFactor="0.75" costs="478.12"/>
    </person>
    <person id="177" type="DEFAULT_PEDTYPE" depart="247.80">
        <personTrip from="998769529" to="28710621#5" walkFactor="0.75" costs="240.78"/>
    </person>
    <person id="178" type="DEFAULT_PEDTYPE" depart="249.20">