<?xml version="1.0" encoding="UTF-8"?>

<!-- generated on Sun Dec  4 13:18:35 2022 by Eclipse SUMO polyconvert Version 1.8.0
<configuration xmlns:xsi="http://www.w3.org/2001/XMLSchema-instance" xsi:noNamespaceSchemaLocation="http://sumo.dlr.de/xsd/polyconvertConfiguration.xsd">

    <input>
        <net-file value="osm.net.xml.gz"/>
        <osm-files value="osm_bbox.osm.xml.gz"/>
        <osm.keep-full-type value="true"/>
        <type-file value="/home/toore/Scaricati/sumo-git//data/typemap/osmPolyconvert.typ.xml"/>
    </input>

    <output>
        <output-file value="osm.poly.xml.gz"/>
    </output>

    <processing>
        <poi-layer-offset value="5"/>
    </processing>

    <report>
        <verbose value="true"/>
    </report>

</configuration>
-->

<additional xmlns:xsi="http://www.w3.org/2001/XMLSchema-instance" xsi:noNamespaceSchemaLocation="http://sumo.dlr.de/xsd/additional_file.xsd">
    <location netOffset="-652311.61,-4945104.84" convBoundary="-50.40,-198.12,946.64,1107.55" origBoundary="10.920043,44.641247,10.932680,44.653005" projParameter="+proj=utm +zone=32 +ellps=WGS84 +datum=WGS84 +units=m +no_defs"/>

    <poly id="1000041366" type="building.yes" color="255,230,230" fill="1" layer="-1.00" shape="70.745533,500.447729 71.994107,503.689203 73.234750,506.930490 74.064401,509.095114 74.894051,511.259737 92.330161,503.990904 94.445356,503.118297 99.381161,501.067406 98.337343,498.564299 90.276715,501.908562 89.007313,498.877765 90.922431,498.078239 88.706792,492.780038 80.916560,496.097346 78.319555,497.214226 73.230208,499.383769 70.745533,500.447729"/>
    <poly id="1002331841" type="building.yes" color="255,230,230" fill="1" layer="-1.00" shape="273.379315,509.052037 274.340820,511.342060 275.294395,513.631896 271.848602,516.084606 269.465666,511.493703 273.379315,509.052037"/>
    <poly id="1002422784" type="building.yes" color="255,230,230" fill="1" layer="-1.00" shape="322.043845,578.409811 319.772789,579.834379 309.361092,586.646086 304.216517,578.722336 304.979923,578.984879 305.795891,579.037492 306.600459,578.900891 307.346049,578.573955 307.992489,578.077962 308.507535,577.434380 308.842297,576.697626 308.995989,575.901024 308.951702,575.088632 308.716053,574.316178 308.296186,573.617175 307.722769,573.036802 307.026735,572.609135 306.263066,572.357700 305.099204,570.574151 314.163841,564.697570 322.043845,578.409811"/>
    <poly id="1002422785" type="building.yes" color="255,230,230" fill="1" layer="-1.00" shape="321.531857,556.080149 311.786058,560.562458 314.163841,564.697570 322.043845,578.409811 330.431875,574.306679 321.531857,556.080149"/>
    <poly id="1002422786" type="building.yes" color="255,230,230" fill="1" layer="-1.00" shape="296.051169,541.140925 297.262718,540.569361 301.179106,538.683493 301.996692,540.347720 297.070408,542.665427 296.051169,541.140925"/>
    <poly id="1002422787" type="building.yes" color="255,230,230" fill="1" layer="-1.00" shape="323.129016,555.306525 320.184901,550.291116 313.343018,553.763917 310.293286,558.259882 307.070049,553.304573 318.651312,547.365172 312.314441,535.501016 307.067289,537.966739 306.242561,536.268999 315.303549,531.892766 318.035006,537.514437 319.736567,536.687706 325.048216,547.616281 323.740197,548.241133 326.403420,553.727826 323.129016,555.306525"/>
    <poly id="1002422791" type="building.roof" color="255,230,230" fill="1" layer="-1.00" shape="341.187686,551.920844 344.808341,560.875602 352.312392,557.585192 353.354471,559.821560 354.457362,562.170508 346.974217,565.583668 341.151414,568.235822 340.072309,565.887438 334.955737,554.763398 338.075807,553.336660 341.187686,551.920844"/>
    <poly id="1002422792" type="building.yes" color="255,230,230" fill="1" layer="-1.00" shape="334.955737,554.763398 333.157210,551.297705 332.824046,550.622976 326.403420,553.727826 323.129016,555.306525 321.531857,556.080149 330.431875,574.306679 331.393028,576.274389 332.372778,575.775156 337.254098,573.345271 342.479283,570.801255 341.151414,568.235822 340.072309,565.887438 334.955737,554.763398"/>
    <poly id="1002422793" type="building.yes" color="255,230,230" fill="1" layer="-1.00" shape="333.157210,551.297705 334.955737,554.763398 338.075807,553.336660 341.187686,551.920844 323.135289,514.728265 319.989579,516.232206 289.166356,530.975461 296.051169,541.140925 297.262718,540.569361 292.541207,530.855093 320.526619,517.345208 321.393261,516.932217 337.162141,549.358378 336.327483,549.761008 333.157210,551.297705"/>
    <poly id="1002422794" type="building.yes" color="255,230,230" fill="1" layer="-1.00" shape="297.262718,540.569361 301.179106,538.683493 301.996692,540.347720 307.067289,537.966739 306.242561,536.268999 315.303549,531.892766 318.035006,537.514437 319.736567,536.687706 325.048216,547.616281 323.740197,548.241133 326.403420,553.727826 332.824046,550.622976 333.157210,551.297705 336.327483,549.761008 337.162141,549.358378 321.393261,516.932217 320.526619,517.345208 292.541207,530.855093 297.262718,540.569361"/>
    <poly id="1095206439" type="shop.bakery" color="237,199,255" fill="1" layer="-1.00" shape="396.444767,207.559518 398.045529,210.331463 395.828211,211.490537 394.219256,208.729513 396.444767,207.559518"/>
    <poly id="1095206440" type="shop.bakery" color="237,199,255" fill="1" layer="-1.00" shape="400.801514,208.873917 402.472389,212.036521 404.673848,210.877075 403.838542,209.290219 403.011167,207.703550 400.801514,208.873917"/>
    <poly id="1095206441" type="shop.bakery" color="237,199,255" fill="1" layer="-1.00" shape="402.472389,212.036521 403.299764,213.623190 405.501222,212.463745 404.673848,210.877075 402.472389,212.036521"/>
    <poly id="1095206442" type="shop.bakery" color="237,199,255" fill="1" layer="-1.00" shape="403.475239,219.629073 401.358652,220.890554 398.947749,216.810204 398.551130,216.133973 400.728534,214.985072 403.475239,219.629073"/>
    <poly id="1095206443" type="shop.cheese" color="237,199,255" fill="1" layer="-1.00" shape="403.299764,213.623190 405.501222,212.463745 410.269254,221.556783 408.205290,222.941763 403.299764,213.623190"/>
    <poly id="1095206444" type="shop.butcher" color="237,199,255" fill="1" layer="-1.00" shape="408.205290,222.941763 410.269254,221.556783 411.461259,223.830043 409.435634,225.271500 408.205290,222.941763"/>
    <poly id="1095206445" type="shop.deli" color="237,199,255" fill="1" layer="-1.00" shape="407.579428,226.594702 405.569664,228.036535 404.165907,225.658244 406.213747,224.283996 407.579428,226.594702"/>
    <poly id="1095206446" type="shop.deli" color="237,199,255" fill="1" layer="-1.00" shape="401.358652,220.890554 403.475239,219.629073 406.213747,224.283996 404.165907,225.658244 401.358652,220.890554"/>
    <poly id="1095234927" type="shop.seafood" color="237,199,255" fill="1" layer="-1.00" shape="407.626185,174.580755 402.520928,177.071996 404.761695,181.637357 408.165285,179.972828 407.044903,177.690147 408.746568,176.863437 407.626185,174.580755"/>
    <poly id="1095234928" type="shop.greengrocer" color="237,199,255" fill="1" layer="-1.00" shape="400.004963,189.527282 406.129411,186.548862 404.963811,184.165084 394.512526,189.264142 393.592297,191.943182 395.045860,194.900592 401.170564,191.911059 400.004963,189.527282"/>
    <poly id="1095234929" type="shop.seafood" color="237,199,255" fill="1" layer="-1.00" shape="401.170564,191.911059 407.295273,188.921533 406.129411,186.548862 400.004963,189.527282 401.170564,191.911059"/>
    <poly id="1095234930" type="shop.newsagent" color="237,199,255" fill="1" layer="-1.00" shape="398.720553,181.761364 402.798410,179.768219 401.678026,177.485539 397.600168,179.478685 398.720553,181.761364"/>
    <poly id="1095234931" type="shop.confectionery" color="237,199,255" fill="1" layer="-1.00" shape="397.600168,179.478685 389.444721,183.453876 390.565108,185.736554 398.720553,181.761364 397.600168,179.478685"/>
    <poly id="1095234932" type="shop.health_food" color="237,199,255" fill="1" layer="-1.00" shape="408.746568,176.863437 413.851828,174.372201 412.731447,172.089519 407.626185,174.580755 408.746568,176.863437"/>
    <poly id="1095234933" type="shop.cheese" color="237,199,255" fill="1" layer="-1.00" shape="410.815492,181.313596 405.806712,183.751542 406.972312,186.135320 411.981353,183.686267 410.815492,181.313596"/>
    <poly id="1095234934" type="shop.greengrocer" color="237,199,255" fill="1" layer="-1.00" shape="411.981353,183.686267 416.990135,181.248326 415.816608,178.864358 410.815492,181.313596 411.981353,183.686267"/>
    <poly id="1095234935" type="shop.greengrocer" color="237,199,255" fill="1" layer="-1.00" shape="403.918793,182.050900 402.798410,179.768219 398.720553,181.761364 390.565108,185.736554 390.807588,186.220199 393.483628,187.139226 403.918793,182.050900"/>
    <poly id="1095234936" type="shop.confectionery" color="237,199,255" fill="1" layer="-1.00" shape="411.981353,183.686267 406.972312,186.135320 408.138174,188.507990 413.146951,186.070046 411.981353,183.686267"/>
    <poly id="1095234937" type="shop.greengrocer" color="237,199,255" fill="1" layer="-1.00" shape="408.165285,179.972828 414.972209,176.654883 413.851828,174.372201 408.746568,176.863437 407.044903,177.690147 408.165285,179.972828"/>
    <poly id="1095238254" type="shop.health_food" color="237,199,255" fill="1" layer="-1.00" shape="372.570492,197.114857 377.049561,194.931116 375.921766,192.626037 371.434766,194.809591 372.570492,197.114857"/>
    <poly id="1095238255" type="shop.cheese" color="237,199,255" fill="1" layer="-1.00" shape="382.728396,189.319168 376.957087,192.128122 378.084882,194.433201 383.864120,191.624435 382.728396,189.319168"/>
    <poly id="1095238256" type="shop.greengrocer" color="237,199,255" fill="1" layer="-1.00" shape="381.600602,187.014088 375.829291,189.823043 376.957087,192.128122 382.728396,189.319168 381.600602,187.014088"/>
    <poly id="1095238257" type="shop.greengrocer" color="237,199,255" fill="1" layer="-1.00" shape="384.961242,193.884334 379.189935,196.693286 380.294988,198.953371 386.074223,196.144607 384.961242,193.884334"/>
    <poly id="1095238258" type="shop.greengrocer" color="237,199,255" fill="1" layer="-1.00" shape="387.179273,198.404694 392.950320,195.606856 391.845533,193.335661 386.074223,196.144607 387.179273,198.404694"/>
    <poly id="1095238260" type="shop.greengrocer" color="237,199,255" fill="1" layer="-1.00" shape="370.301799,203.807659 371.406853,206.067743 375.885654,203.895110 374.780601,201.635025 370.301799,203.807659"/>
    <poly id="1095238261" type="shop.greengrocer" color="237,199,255" fill="1" layer="-1.00" shape="374.780601,201.635025 375.885654,203.895110 380.364457,201.722480 378.154615,197.191201 373.675809,199.363833 374.780601,201.635025"/>
    <poly id="1095238262" type="shop.greengrocer" color="237,199,255" fill="1" layer="-1.00" shape="374.780601,201.635025 373.675809,199.363833 369.188814,201.547388 370.301799,203.807659 374.780601,201.635025"/>
    <poly id="1095238263" type="shop.beverages" color="237,199,255" fill="1" layer="-1.00" shape="378.065349,208.358989 382.552080,206.186548 381.424289,203.881468 376.937557,206.053910 378.065349,208.358989"/>
    <poly id="1095238264" type="amenity.fast_food" color="237,199,199" fill="1" layer="-1.00" shape="366.999462,185.735560 371.486205,183.563111 373.741801,188.173267 369.262729,190.357010 366.999462,185.735560"/>
    <poly id="1095238265" type="amenity.fast_food" color="237,199,199" fill="1" layer="-1.00" shape="376.539077,183.960333 379.428569,182.561503 380.556365,184.866582 386.327420,182.068739 384.072092,177.447470 375.411280,181.655254 376.539077,183.960333"/>
    <poly id="1095238266" type="shop.seafood" color="237,199,255" fill="1" layer="-1.00" shape="387.379848,184.205324 381.600602,187.014088 382.728396,189.319168 383.864120,191.624435 387.837300,189.695494 388.757264,187.027562 387.379848,184.205324"/>
    <poly id="1095238267" type="shop.greengrocer" color="237,199,255" fill="1" layer="-1.00" shape="386.074223,196.144607 391.845533,193.335661 391.618389,192.874607 388.942351,191.955581 384.961242,193.884334 386.074223,196.144607"/>
    <poly id="1095238268" type="shop.cheese" color="237,199,255" fill="1" layer="-1.00" shape="391.285287,201.936027 395.137937,200.070929 394.010149,197.765847 382.459871,203.372445 383.587662,205.677525 391.285287,201.936027"/>
    <poly id="1095242868" type="amenity.fast_food" color="237,199,199" fill="1" layer="-1.00" shape="375.411280,181.655254 372.521527,183.065194 374.777122,187.675351 380.556365,184.866582 379.428569,182.561503 376.539077,183.960333 375.411280,181.655254"/>
    <poly id="1095242870" type="shop.greengrocer" color="237,199,255" fill="1" layer="-1.00" shape="392.412812,204.252217 396.265724,202.376012 395.137937,200.070929 391.285287,201.936027 392.412812,204.252217"/>
    <poly id="1095242871" type="shop.greengrocer" color="237,199,255" fill="1" layer="-1.00" shape="376.937557,206.053910 372.458757,208.226542 373.586288,210.542729 378.065349,208.358989 376.937557,206.053910"/>
    <poly id="1095592251" type="shop.bakery" color="237,199,255" fill="1" layer="-1.00" shape="394.219256,208.729513 396.444767,207.559518 394.600738,204.337253 392.448697,205.420069 394.219256,208.729513"/>
    <poly id="1095592253" type="shop.butcher" color="237,199,255" fill="1" layer="-1.00" shape="381.712029,210.845833 377.415624,213.022771 379.147645,216.620272 383.389587,214.397592 381.712029,210.845833"/>
    <poly id="1095592254" type="shop.butcher" color="237,199,255" fill="1" layer="-1.00" shape="377.415624,213.022771 375.271519,214.105780 377.026543,217.737167 379.147645,216.620272 377.415624,213.022771"/>
    <poly id="1095592255" type="amenity.cafe" color="237,199,199" fill="1" layer="-1.00" shape="373.119221,215.199711 370.975118,216.282722 372.784605,219.959852 374.905705,218.842955 373.119221,215.199711"/>
    <poly id="1095592256" type="shop.pasta" color="237,199,255" fill="1" layer="-1.00" shape="392.448697,205.420069 388.152284,207.597000 389.889025,210.994558 394.219256,208.729513 392.448697,205.420069"/>
    <poly id="1095592257" type="amenity.fast_food" color="237,199,199" fill="1" layer="-1.00" shape="367.888341,174.642233 366.318840,170.881860 361.022573,172.390560 363.012754,176.816614 367.888341,174.642233"/>
    <poly id="1095592258" type="amenity.fast_food" color="237,199,199" fill="1" layer="-1.00" shape="363.012754,176.816614 361.022573,172.390560 355.929665,174.359756 358.136908,179.002107 363.012754,176.816614"/>
    <poly id="1095592259" type="amenity.fast_food" color="237,199,199" fill="1" layer="-1.00" shape="358.136908,179.002107 355.929665,174.359756 350.828830,176.328768 353.253397,181.176308 358.136908,179.002107"/>
    <poly id="1095592260" type="shop.deli" color="237,199,255" fill="1" layer="-1.00" shape="382.028334,174.954036 379.056388,176.484289 377.538323,173.569817 380.502339,172.039375 382.028334,174.954036"/>
    <poly id="1095596725" type="shop.butcher" color="237,199,255" fill="1" layer="-1.00" shape="410.127337,169.805121 412.414731,168.703280 410.873674,165.754913 408.602403,166.846022 410.127337,169.805121"/>
    <poly id="1095596726" type="shop.butcher" color="237,199,255" fill="1" layer="-1.00" shape="406.323202,167.936944 404.051669,169.039163 405.560744,171.997887 407.839944,170.906964 406.323202,167.936944"/>
    <poly id="1095596727" type="shop.butcher" color="237,199,255" fill="1" layer="-1.00" shape="401.780400,170.130274 394.950474,173.414346 396.411184,176.405268 403.273353,173.099731 401.780400,170.130274"/>
    <poly id="1095596728" type="shop.confectionery" color="237,199,255" fill="1" layer="-1.00" shape="394.950474,173.414346 392.678945,174.516569 394.123796,177.507116 396.411184,176.405268 394.950474,173.414346"/>
    <poly id="1095596729" type="shop.cheese" color="237,199,255" fill="1" layer="-1.00" shape="392.678945,174.516569 388.104432,176.709159 389.557214,179.699892 394.123796,177.507116 392.678945,174.516569"/>
    <poly id="1095596730" type="shop.bakery" color="237,199,255" fill="1" layer="-1.00" shape="388.104432,176.709159 386.712466,173.831006 384.472922,174.922873 385.871507,177.856753 388.104432,176.709159"/>
    <poly id="1095596731" type="shop.butcher" color="237,199,255" fill="1" layer="-1.00" shape="408.602403,166.846022 406.323202,167.936944 407.839944,170.906964 410.127337,169.805121 408.602403,166.846022"/>
    <poly id="1095596732" type="shop.cheese" color="237,199,255" fill="1" layer="-1.00" shape="385.871507,177.856753 387.269829,180.801742 389.557214,179.699892 388.104432,176.709159 385.871507,177.856753"/>
    <poly id="1095596733" type="amenity.pharmacy" color="237,199,199" fill="1" layer="-1.00" shape="406.335745,190.577124 407.873178,194.014435 404.918050,196.512020 402.778600,192.360283 406.335745,190.577124"/>
    <poly id="1095596734" type="shop.deli" color="237,199,255" fill="1" layer="-1.00" shape="399.221458,194.143445 402.778600,192.360283 404.918050,196.512020 403.760420,197.484958 401.752805,199.171357 399.221458,194.143445"/>
    <poly id="1095596735" type="shop.butcher" color="237,199,255" fill="1" layer="-1.00" shape="413.217177,187.127567 420.098355,183.689124 422.113540,187.726788 414.993355,190.870608 413.217177,187.127567"/>
    <poly id="1095596736" type="shop.bakery" color="237,199,255" fill="1" layer="-1.00" shape="394.909701,196.297780 395.873389,195.809290 397.438923,195.034932 400.230971,200.446891 399.736998,200.868678 397.820496,202.057088 394.909701,196.297780"/>
    <poly id="1095596737" type="amenity.fast_food" color="237,199,199" fill="1" layer="-1.00" shape="414.993355,190.870608 407.873178,194.014435 406.335745,190.577124 413.217177,187.127567 414.993355,190.870608"/>
    <poly id="1095602029" type="amenity.fast_food" color="237,199,199" fill="1" layer="-1.00" shape="374.905514,170.484525 374.267342,168.613357 366.318840,170.881860 367.888341,174.642233 375.209920,171.369748 374.905514,170.484525"/>
    <poly id="1095603368" type="shop.deli" color="237,199,255" fill="1" layer="-1.00" shape="399.692889,205.757940 401.469854,204.766293 399.736998,200.868678 397.820496,202.057088 399.692889,205.757940"/>
    <poly id="116862776" type="building.yes" color="255,230,230" fill="1" layer="-1.00" shape="300.009551,343.266073 293.007514,345.112431 295.684010,357.434724 315.206654,353.227712 314.449019,371.870768 304.489740,378.326407 301.057305,380.546020 299.840480,381.339747 307.169465,391.182271 309.894422,389.690614 312.627309,388.199146 315.352268,386.707491 320.810382,383.713265 323.535345,382.221614 323.559908,379.165755 323.584472,376.109896 323.609297,373.042929 323.633861,369.987070 323.658424,366.931211 323.682987,363.875352 325.763775,363.791121 327.836633,363.706705 327.934510,350.827515 331.132780,350.125047 334.330788,349.433689 336.285843,361.727850 338.635666,361.338776 340.977559,360.949517 344.151131,359.612956 344.880363,359.307865 347.279749,358.164191 356.588410,353.727168 355.918565,350.510419 355.248456,347.304779 354.578609,344.088030 353.908762,340.871282 353.246581,337.665829 352.576731,334.449081 351.906881,331.232333 351.237030,328.015585 350.566916,324.809945 349.897064,321.593197 346.112281,322.604118 345.649194,322.726552 342.319569,323.614855 338.534788,324.625780 334.742079,325.636521 335.218090,328.326315 335.693838,331.027218 336.169848,333.717013 334.070626,334.245378 327.899317,335.855690 321.719033,337.510253 319.642816,338.072509 312.696539,339.909049 300.009551,343.266073"/>
    <poly id="116862778" type="building.yes" color="255,230,230" fill="1" layer="-1.00" shape="270.170157,363.356441 274.968282,370.505083 294.722558,359.846059 289.182180,346.833743 293.007514,345.112431 300.009551,343.266073 298.913802,341.284079 296.469531,336.936236 280.442023,345.004694 266.415396,352.342423 265.734607,351.603920 263.431832,353.361192 264.198602,354.490725 270.170157,363.356441"/>
    <poly id="117266928" type="building.yes" color="255,230,230" fill="1" layer="-1.00" shape="233.211368,414.143355 218.547666,425.622897 208.132962,412.384475 222.577847,401.099803 215.437952,392.317702 214.144528,393.331923 205.042470,400.452569 200.887614,403.699930 202.892563,406.492479 193.739221,413.434101 204.101393,428.227262 209.197590,442.918395 212.692743,441.400419 226.697159,435.329092 240.701603,429.257795 244.204700,427.740022 235.261980,416.681363 233.211368,414.143355"/>
    <poly id="117514639" type="building.yes" color="255,230,230" fill="1" layer="-1.00" shape="172.158216,501.194767 168.345535,492.969133 174.922896,489.945626 178.735309,498.182372 188.777905,493.562381 187.761970,490.215228 186.738104,486.867888 185.714499,483.509440 184.698561,480.162288 170.251848,485.145176 169.067759,485.561812 169.818084,487.724577 168.186259,488.286249 167.748018,487.019992 159.269349,489.920850 160.163528,492.375980 161.951884,497.286241 164.634150,504.662741 172.158216,501.194767"/>
    <poly id="117561931" type="building.yes" color="255,230,230" fill="1" layer="-1.00" shape="133.606577,451.393436 134.471811,454.403594 132.227029,455.050846 131.361793,452.040688 126.265371,453.498710 128.677246,461.913559 131.210381,461.150850 135.349720,459.903657 136.424672,463.441136 138.516897,470.270218 145.010912,468.089401 144.222693,465.514516 143.442141,462.950926 142.661850,460.376228 141.380065,456.189239 140.894430,454.577323 140.400865,452.965220 139.907300,451.353116 139.413735,449.741013 133.606577,451.393436"/>
    <poly id="117563086" type="building.yes" color="255,230,230" fill="1" layer="-1.00" shape="96.954518,516.492410 103.968095,514.145979 105.940391,520.005277 98.934748,522.351893 100.223094,526.261170 104.821524,525.058129 107.070940,533.969284 107.643227,536.616872 119.146226,532.642508 118.731419,529.709661 118.308944,526.765519 117.894136,523.832671 117.479590,520.888716 119.171434,520.472933 120.855347,520.056964 117.978097,504.462410 116.233169,505.110342 114.488242,505.758274 101.217867,510.657912 95.703197,512.695151 96.954518,516.492410"/>
    <poly id="117563088" type="building.yes" color="255,230,230" fill="1" layer="-1.00" shape="86.147513,540.411180 80.695560,526.667592 85.172277,524.905952 90.712568,538.940599 100.473847,535.814275 103.191953,534.944775 100.223094,526.261170 98.934748,522.351893 96.954518,516.492410 95.703197,512.695151 82.344577,517.637202 83.819770,521.361938 80.303523,522.768341 78.847069,518.921790 77.958488,519.256496 69.834648,522.254748 70.780435,524.877796 73.618051,532.735833 76.455659,540.593871 77.401440,543.216920 86.147513,540.411180"/>
    <poly id="117631757" type="building.yes" color="255,230,230" fill="1" layer="-1.00" shape="69.105585,466.021402 93.827507,454.289691 95.673104,453.410726 87.559613,436.114482 84.792129,437.394054 78.591132,440.270927 83.439791,450.665990 73.757460,455.150152 68.908789,444.755097 61.560486,448.171764 63.040875,451.340901 59.046000,453.191718 57.565610,450.022583 48.500963,454.221258 50.027814,457.102515 53.081773,462.853922 54.616549,465.735367 56.143394,468.616625 57.670238,471.497884 65.414668,467.768238 63.966004,464.599849 67.687070,462.920408 69.105585,466.021402"/>
    <poly id="117631978" type="building.yes" color="255,230,230" fill="1" layer="-1.00" shape="89.673527,386.172184 82.095325,390.250268 83.707574,393.211346 80.067145,395.170539 81.479385,398.538130 82.883956,401.894426 84.296454,405.250910 86.873635,403.966849 89.443148,402.671494 92.020593,401.376327 94.598039,400.081162 97.167555,398.785810 91.100361,388.584291 89.673527,386.172184"/>
    <poly id="118485003" type="building.yes" color="255,230,230" fill="1" layer="-1.00" shape="157.433382,429.182279 158.260863,432.447179 158.711631,434.191646 164.187399,432.798170 165.175442,436.655918 157.927725,438.496620 159.022722,441.856746 161.201762,448.032140 173.568583,444.445016 174.814808,444.085418 176.053103,443.725634 172.676080,425.440712 171.415303,425.744395 170.162193,426.059374 157.433382,429.182279"/>
    <poly id="118485761" type="building.yes" color="255,230,230" fill="1" layer="-1.00" shape="202.973196,301.197375 193.567533,292.261812 192.814835,291.543850 192.070067,290.826075 172.672086,309.251607 173.352104,310.023424 174.040051,310.795428 182.470197,320.385919 188.845805,314.823595 183.383137,309.604349 189.530359,303.969951 193.901109,308.052006 192.917729,309.040204 196.341266,312.577538 203.124465,305.546641 200.790224,303.257582 202.973196,301.197375"/>
    <poly id="118486316" type="building.residential" color="255,230,230" fill="1" layer="-1.00" shape="89.565331,291.497991 86.290333,273.582312 68.241352,276.868933 50.224635,280.134135 57.794754,321.502193 63.094614,350.457639 68.329983,349.502984 75.892157,348.125280 74.894440,342.655747 70.679073,343.423274 62.841253,300.626252 68.124503,299.661610 65.397022,284.770828 72.186130,283.541604 74.154060,294.302190 81.692247,292.935038 89.565331,291.497991"/>
    <poly id="118496015" type="building.residential" color="255,230,230" fill="1" layer="-1.00" shape="198.755942,278.169035 201.855131,274.941215 208.053518,268.485581 211.152978,265.246657 214.252179,262.018844 217.343453,258.790844 218.579754,257.508531 219.816055,256.226219 208.265684,245.372818 207.037314,246.655320 196.297562,257.938550 201.140541,262.520781 197.145977,266.705533 192.241130,262.055159 189.905449,264.534111 186.991798,267.632942 189.330775,269.722049 193.697815,273.626186 198.755942,278.169035"/>
    <poly id="118496017" type="building.yes" color="255,230,230" fill="1" layer="-1.00" shape="141.873310,312.170542 140.030502,308.892811 144.058449,306.653818 145.862393,309.897291 149.013588,307.826563 153.385922,304.106382 145.936689,295.983930 144.527854,297.517815 143.111089,299.051513 139.979874,300.611457 136.840731,302.171216 133.701589,303.730976 130.562448,305.290738 131.640700,308.016946 132.711283,310.731860 133.789533,313.458069 134.860114,316.172983 141.873310,312.170542"/>
    <poly id="118496433" type="building.yes" color="255,230,230" fill="1" layer="-1.00" shape="151.861500,263.114196 155.954202,258.131503 152.902485,255.647709 154.805739,253.336373 157.826260,255.797203 160.154719,252.951298 158.847102,251.875705 155.149504,248.854302 159.193327,243.926028 162.891188,246.936326 163.552927,247.474310 164.263545,246.613044 166.866610,243.562447 158.267140,236.435365 156.723547,238.299498 155.172025,240.163445 153.620504,242.027392 152.076652,243.902634 150.525133,245.766582 147.430027,249.494665 145.886440,251.358801 143.792205,253.021005 141.706163,254.672289 139.612192,256.323386 149.070471,264.715505 150.786282,262.277488 151.861500,263.114196"/>
    <poly id="119338797" type="building.yes" color="255,230,230" fill="1" layer="-1.00" shape="92.619817,205.367486 91.676275,196.253739 89.575127,196.526510 89.317116,194.008594 91.019139,193.837555 90.877305,187.065601 88.445373,186.897116 86.013180,186.739739 83.589178,186.571442 81.157246,186.402959 83.705020,206.224257 92.619817,205.367486"/>
    <poly id="119340226" type="building.residential" color="255,230,230" fill="1" layer="-1.00" shape="126.820950,189.413659 122.976599,188.911762 122.786800,188.885057 119.132248,188.409868 115.279705,187.918897 111.435353,187.417007 111.544516,197.255739 112.447502,197.321491 112.561427,202.247814 112.667683,207.162842 115.437323,222.954898 132.184300,214.325055 134.979345,212.890548 131.595856,206.642305 123.490893,210.841299 122.352180,207.313437 122.463542,203.937315 124.635607,204.021885 126.820950,189.413659"/>
    <poly id="119341897" type="building.yes" color="255,230,230" fill="1" layer="-1.00" shape="148.073086,221.223923 152.255819,224.534623 149.982866,227.381841 145.800134,224.071142 142.292010,228.489687 150.859912,234.938029 152.675222,232.991390 156.297917,229.097925 158.113230,227.151287 159.928545,225.204650 161.743599,223.269121 156.405297,219.164268 152.555171,216.217069 151.367051,217.811731 150.820853,217.420960 148.073086,221.223923"/>
    <poly id="119341899" type="building.yes" color="255,230,230" fill="1" layer="-1.00" shape="130.176848,240.229610 127.243810,242.805637 129.566763,245.238886 135.938674,250.935214 137.460896,249.303973 138.983118,247.672732 140.505603,246.030383 142.027827,244.399142 143.550051,242.767902 145.072277,241.136662 138.129450,234.415458 137.448127,235.044017 134.633511,237.645063 136.452013,239.599616 133.726463,242.124963 132.093567,240.374846 131.136335,241.263642 130.176848,240.229610"/>
    <poly id="119342257" type="building.yes" color="255,230,230" fill="1" layer="-1.00" shape="168.915322,174.546470 167.893324,175.489304 164.827595,178.306701 159.887073,186.937112 154.946563,195.567526 156.415746,196.858100 172.722681,211.257936 175.099402,209.057804 178.433629,205.957775 179.414925,205.058439 168.915322,174.546470"/>
    <poly id="119445846" type="building.yes" color="255,230,230" fill="1" layer="-1.00" shape="153.607120,157.158231 153.357979,160.319932 149.369104,160.225840 149.546156,157.429211 147.478477,157.291525 148.655934,156.485725 144.615791,155.201197 142.290207,159.269750 139.752050,165.622837 142.442942,166.586565 141.443795,170.597491 144.039908,170.869898 163.632712,172.788045 164.161346,166.187504 164.839456,157.623256 163.032163,157.547278 161.914271,157.509793 153.607120,157.158231"/>
    <poly id="119445848" type="building.yes" color="255,230,230" fill="1" layer="-1.00" shape="154.763801,139.069198 145.479990,130.336653 144.096153,131.482129 142.849749,132.519703 135.044491,143.183166 135.480722,143.526884 131.641544,148.860115 132.304867,149.331446 131.197353,150.872442 129.199713,149.447153 126.827201,152.814404 130.200640,155.116827 135.252601,158.581385 136.537499,159.611978 138.396265,156.832787 143.042926,149.895917 153.410112,140.282068 154.763801,139.069198"/>