<?xml version="1.0" encoding="UTF-8"?>

<!-- generated on lun 5 dic 2022, 14:38:04 by Eclipse SUMO netedit Version 1.8.0
<configuration xmlns:xsi="http://www.w3.org/2001/XMLSchema-instance" xsi:noNamespaceSchemaLocation="http://sumo.dlr.de/xsd/netconvertConfiguration.xsd">

    <input>
        <sumo-net-file value="/home/toore/Tirocinio_SUMO/Scenario/Modena/osm.net.xml"/>
    </input>

    <output>
        <output-file value="/home/toore/Tirocinio_SUMO/Scenario/Modena/osm.net.xml"/>
        <output.street-names value="true"/>
    </output>

    <processing>
        <geometry.min-radius.fix.railways value="false"/>
        <geometry.max-grade.fix value="false"/>
        <offset.disable-normalization value="true"/>
        <lefthand value="false"/>
    </processing>

    <junctions>
        <no-turnarounds value="true"/>
        <junctions.corner-detail value="5"/>
        <junctions.limit-turn-speed value="5.5"/>
        <rectangular-lane-cut value="false"/>
    </junctions>

    <pedestrian>
        <walkingareas value="false"/>
    </pedestrian>

    <netedit>
        <route-files value="/home/toore/Tirocinio_SUMO/Scenario/Modena/osm.rou.xml"/>
    </netedit>

    <report>
        <aggregate-warnings value="5"/>
    </report>

</configuration>
-->

<net version="1.6" junctionCornerDetail="5" limitTurnSpeed="5.50" xmlns:xsi="http://www.w3.org/2001/XMLSchema-instance" xsi:noNamespaceSchemaLocation="http://sumo.dlr.de/xsd/net_file.xsd">

    <location netOffset="-652311.61,-4945104.84" convBoundary="0.00,0.00,794.52,836.85" origBoundary="10.920709,44.643046,10.930771,44.650594" projParameter="+proj=utm +zone=32 +ellps=WGS84 +datum=WGS84 +units=m +no_defs"/>

    <type id="highway.bridleway" priority="1" numLanes="1" speed="2.78" allow="pedestrian" oneway="1" width="2.00"/>
    <type id="highway.bus_guideway" priority="1" numLanes="1" speed="27.78" allow="bus" oneway="1"/>
    <type id="highway.cycleway" priority="1" numLanes="1" speed="5.56" allow="bicycle" oneway="1" width="1.00"/>
    <type id="highway.footway" priority="1" numLanes="1" speed="2.78" allow="pedestrian" oneway="1" width="2.00"/>
    <type id="highway.ford" priority="1" numLanes="1" speed="2.78" allow="army" oneway="1"/>
    <type id="highway.living_street" priority="2" numLanes="1" speed="2.78" disallow="tram rail_urban rail rail_electric rail_fast ship" oneway="1"/>
    <type id="highway.motorway" priority="14" numLanes="2" speed="39.44" allow="private emergency authority army vip passenger hov taxi bus coach delivery truck trailer motorcycle evehicle custom1 custom2" oneway="1"/>
    <type id="highway.motorway_link" priority="9" numLanes="1" speed="22.22" allow="private emergency authority army vip passenger hov taxi bus coach delivery truck trailer motorcycle evehicle custom1 custom2" oneway="1"/>
    <type id="highway.path" priority="1" numLanes="1" speed="5.56" allow="pedestrian bicycle" oneway="1" width="2.00"/>
    <type id="highway.pedestrian" priority="1" numLanes="1" speed="2.78" allow="pedestrian" oneway="1" width="2.00"/>
    <type id="highway.primary" priority="12" numLanes="2" speed="27.78" disallow="tram rail_urban rail rail_electric rail_fast ship" oneway="1"/>
    <type id="highway.primary_link" priority="7" numLanes="1" speed="22.22" disallow="tram rail_urban rail rail_electric rail_fast ship" oneway="1"/>
    <type id="highway.raceway" priority="15" numLanes="2" speed="83.33" allow="vip" oneway="1"/>
    <type id="highway.residential" priority="3" numLanes="1" speed="13.89" disallow="tram rail_urban rail rail_electric rail_fast ship" oneway="1"/>
    <type id="highway.secondary" priority="11" numLanes="1" speed="27.78" disallow="tram rail_urban rail rail_electric rail_fast ship" oneway="1"/>
    <type id="highway.secondary_link" priority="6" numLanes="1" speed="22.22" disallow="tram rail_urban rail rail_electric rail_fast ship" oneway="1"/>
    <type id="highway.service" priority="1" numLanes="1" speed="5.56" allow="pedestrian delivery bicycle" oneway="1"/>
    <type id="highway.stairs" priority="1" numLanes="1" speed="1.39" allow="pedestrian" oneway="1" width="2.00"/>
    <type id="highway.step" priority="1" numLanes="1" speed="1.39" allow="pedestrian" oneway="1" width="2.00"/>
    <type id="highway.steps" priority="1" numLanes="1" speed="1.39" allow="pedestrian" oneway="1" width="2.00"/>
    <type id="highway.tertiary" priority="10" numLanes="1" speed="22.22" disallow="tram rail_urban rail rail_electric rail_fast ship" oneway="1"/>
    <type id="highway.tertiary_link" priority="5" numLanes="1" speed="22.22" disallow="tram rail_urban rail rail_electric rail_fast ship" oneway="1"/>
    <type id="highway.track" priority="1" numLanes="1" speed="5.56" allow="pedestrian motorcycle moped bicycle" oneway="1"/>
    <type id="highway.trunk" priority="13" numLanes="2" speed="27.78" disallow="pedestrian bicycle tram rail_urban rail rail_electric rail_fast ship" oneway="1"/>
    <type id="highway.trunk_link" priority="8" numLanes="1" speed="22.22" disallow="pedestrian bicycle tram rail_urban rail rail_electric rail_fast ship" oneway="1"/>
    <type id="highway.unclassified" priority="4" numLanes="1" speed="13.89" disallow="tram rail_urban rail rail_electric rail_fast ship" oneway="1"/>
    <type id="highway.unsurfaced" priority="1" numLanes="1" speed="8.33" disallow="tram rail_urban rail rail_electric rail_fast ship" oneway="1"/>
    <type id="railway.highspeed" priority="21" numLanes="1" speed="69.44" allow="rail_fast" oneway="1"/>
    <type id="railway.light_rail" priority="19" numLanes="1" speed="27.78" allow="rail_urban" oneway="1"/>
    <type id="railway.preserved" priority="16" numLanes="1" speed="27.78" allow="rail" oneway="1"/>
    <type id="railway.rail" priority="20" numLanes="1" speed="44.44" allow="rail" oneway="1"/>
    <type id="railway.subway" priority="18" numLanes="1" speed="27.78" allow="rail_urban" oneway="1"/>
    <type id="railway.tram" priority="17" numLanes="1" speed="13.89" allow="tram" oneway="1"/>

    <edge id=":10033394681_0" function="internal">
        <lane id=":10033394681_0_0" index="0" disallow="tram rail_urban rail rail_electric rail_fast ship" speed="8.33" length="6.69" shape="420.58,172.00 425.40,176.64"/>
    </edge>
    <edge id=":1256903862_0" function="internal">
        <lane id=":1256903862_0_0" index="0" disallow="tram rail_urban rail rail_electric rail_fast ship" speed="6.36" length="9.04" shape="535.91,543.47 534.49,541.41 532.78,540.35 530.76,540.29 528.44,541.22"/>
    </edge>
    <edge id=":1256903862_1" function="internal">
        <lane id=":1256903862_1_0" index="0" disallow="tram rail_urban rail rail_electric rail_fast ship" speed="6.74" length="9.21" shape="535.91,543.47 535.10,541.06 535.19,538.93 536.20,537.10 538.10,535.56"/>
    </edge>
    <edge id=":1317712532_0" function="internal">
        <lane id=":1317712532_0_0" index="0" disallow="tram rail_urban rail rail_electric rail_fast ship" speed="5.44" length="6.08" shape="301.19,165.32 300.65,162.91 300.45,161.15 300.61,160.02 301.12,159.54"/>
    </edge>
    <edge id=":1317712532_1" function="internal">
        <lane id=":1317712532_1_0" index="0" disallow="tram rail_urban rail rail_electric rail_fast ship" speed="8.33" length="6.99" shape="294.34,161.24 301.12,159.54"/>
    </edge>
    <edge id=":1324159545_0" function="internal">
        <lane id=":1324159545_0_0" index="0" disallow="tram rail_urban rail rail_electric rail_fast ship" speed="8.33" length="1.85" shape="148.65,468.50 149.33,470.23"/>
    </edge>
    <edge id=":1377649984_0" function="internal">
        <lane id=":1377649984_0_0" index="0" disallow="tram rail_urban rail rail_electric rail_fast ship" speed="8.33" length="8.80" shape="645.85,402.90 653.60,398.72"/>
    </edge>
    <edge id=":1377649984_1" function="internal">
        <lane id=":1377649984_1_0" index="0" disallow="tram rail_urban rail rail_electric rail_fast ship" speed="6.47" length="9.03" shape="645.85,402.90 648.19,402.06 650.22,402.18 651.95,403.26 653.37,405.29"/>
    </edge>
    <edge id=":144808541_0" function="internal">
        <lane id=":144808541_0_0" index="0" disallow="tram rail_urban rail rail_electric rail_fast ship" speed="8.33" length="7.19" shape="500.78,150.35 499.85,143.23"/>
    </edge>
    <edge id=":144808541_1" function="internal">
        <lane id=":144808541_1_0" index="0" disallow="tram rail_urban rail rail_electric rail_fast ship" speed="5.22" length="4.25" shape="500.78,150.35 500.86,149.34 501.27,148.47 502.02,147.75 503.11,147.18"/>
    </edge>
    <edge id=":144808542_0" function="internal">
        <lane id=":144808542_0_0" index="0" disallow="tram rail_urban rail rail_electric rail_fast ship" speed="8.33" length="7.58" shape="498.07,185.51 499.32,183.64 500.05,182.29 500.67,180.87 501.57,178.81"/>
    </edge>
    <edge id=":144808542_1" function="internal">
        <lane id=":144808542_1_0" index="0" disallow="tram rail_urban rail rail_electric rail_fast ship" speed="8.33" length="8.28" shape="498.07,185.51 499.57,183.62 500.88,182.57 502.46,181.86 504.75,180.97"/>
    </edge>
    <edge id=":144808546_0" function="internal">
        <lane id=":144808546_0_0" index="0" disallow="tram rail_urban rail rail_electric rail_fast ship" speed="4.86" length="3.90" shape="487.92,198.18 487.78,197.46 488.01,196.68 488.63,195.86 489.63,195.00"/>
    </edge>
    <edge id=":144808546_1" function="internal">
        <lane id=":144808546_1_0" index="0" disallow="tram rail_urban rail rail_electric rail_fast ship" speed="8.33" length="5.68" shape="484.46,197.13 486.11,196.80 487.23,196.48 488.26,195.96 489.63,195.00"/>
    </edge>
    <edge id=":1787128305_0" function="internal">
        <lane id=":1787128305_0_0" index="0" disallow="tram rail_urban rail rail_electric rail_fast ship" speed="3.91" length="2.45" shape="242.74,433.23 242.35,432.69 241.87,432.40 241.31,432.35 240.68,432.54"/>
    </edge>
    <edge id=":1944588188_0" function="internal">
        <lane id=":1944588188_0_0" index="0" allow="bicycle" speed="4.18" length="3.22" width="1.00" shape="80.35,570.78 79.94,570.00 79.37,569.54 78.66,569.42 77.80,569.63"/>
    </edge>
    <edge id=":1944588188_1" function="internal">
        <lane id=":1944588188_1_0" index="0" disallow="tram rail_urban rail rail_electric rail_fast ship" speed="8.33" length="5.40" shape="81.38,570.42 81.11,568.88 81.29,567.75 81.47,566.63 81.18,565.10"/>
    </edge>
    <edge id=":1944588188_2" function="internal">
        <lane id=":1944588188_2_0" index="0" disallow="tram rail_urban rail rail_electric rail_fast ship" speed="3.65" length="4.67" shape="81.38,570.42 81.74,569.02 82.36,568.38 83.25,568.49 84.40,569.36"/>
    </edge>
    <edge id=":1944588188_3" function="internal">
        <lane id=":1944588188_3_0" index="0" allow="bicycle" speed="4.63" length="4.67" shape="77.43,568.70 78.87,567.99 79.81,567.21 80.23,566.37 80.15,565.47"/>
    </edge>
    <edge id=":1944588188_4" function="internal">
        <lane id=":1944588188_4_0" index="0" allow="bicycle" speed="6.11" length="8.83" shape="77.43,568.70 80.53,567.68 82.90,567.38 84.54,567.82 85.44,568.99"/>
    </edge>
    <edge id=":1944588188_5" function="internal">
        <lane id=":1944588188_5_0" index="0" allow="bicycle" speed="2.04" length="1.46" width="1.00" shape="77.43,568.70 77.87,568.79 78.08,568.98 78.05,569.25 77.80,569.63"/>
    </edge>
    <edge id=":1944588191_0" function="internal">
        <lane id=":1944588191_0_0" index="0" allow="bicycle" speed="2.04" length="1.46" width="1.00" shape="25.15,590.03 24.71,589.93 24.50,589.74 24.53,589.46 24.79,589.09"/>
    </edge>
    <edge id=":1945691564_0" function="internal">
        <lane id=":1945691564_0_0" index="0" disallow="tram rail_urban rail rail_electric rail_fast ship" speed="8.33" length="5.22" shape="285.63,528.24 284.80,526.94 284.26,526.02 283.77,525.08 283.11,523.68"/>
    </edge>
    <edge id=":2025194842_0" function="internal">
        <lane id=":2025194842_0_0" index="0" disallow="tram rail_urban rail rail_electric rail_fast ship" speed="8.33" length="0.27" shape="120.10,503.46 120.20,503.70"/>
    </edge>
    <edge id=":2025194861_0" function="internal">
        <lane id=":2025194861_0_0" index="0" allow="pedestrian delivery bicycle" speed="5.02" length="5.03" shape="80.33,562.78 79.68,561.56 78.80,560.85 77.68,560.66 76.34,560.97"/>
    </edge>
    <edge id=":2025194861_1" function="internal">
        <lane id=":2025194861_1_0" index="0" disallow="tram rail_urban rail rail_electric rail_fast ship" speed="8.33" length="9.41" shape="80.33,562.78 77.09,553.95"/>
    </edge>
    <edge id=":2025194861_2" function="internal">
        <lane id=":2025194861_2_0" index="0" allow="pedestrian delivery bicycle" speed="5.10" length="5.08" shape="75.18,557.99 76.41,557.30 77.14,556.40 77.37,555.28 77.09,553.95"/>
    </edge>
    <edge id=":2025194861_3" function="internal">
        <lane id=":2025194861_3_0" index="0" allow="pedestrian delivery bicycle" speed="3.65" length="4.67" shape="75.18,557.99 76.59,558.30 77.25,558.90 77.17,559.79 76.34,560.97"/>
    </edge>
    <edge id=":2025439713_0" function="internal">
        <lane id=":2025439713_0_0" index="0" disallow="tram rail_urban rail rail_electric rail_fast ship" speed="5.27" length="5.30" shape="442.75,583.82 445.23,588.50"/>
    </edge>
    <edge id=":2030176498_0" function="internal">
        <lane id=":2030176498_0_0" index="0" disallow="tram rail_urban rail rail_electric rail_fast ship" speed="6.56" length="8.83" shape="730.39,175.32 728.44,176.78 727.38,178.51 727.21,180.50 727.93,182.75"/>
    </edge>
    <edge id=":2030176498_1" function="internal">
        <lane id=":2030176498_1_0" index="0" disallow="tram rail_urban rail rail_electric rail_fast ship" speed="8.33" length="10.80" shape="723.20,173.05 727.93,182.75"/>
    </edge>
    <edge id=":2030176507_0" function="internal">
        <lane id=":2030176507_0_0" index="0" disallow="tram rail_urban rail rail_electric rail_fast ship" speed="8.33" length="12.30" shape="211.04,317.50 208.63,319.81 206.62,321.80 204.52,323.68 201.86,325.67"/>
    </edge>
    <edge id=":2030176515_0" function="internal">
        <lane id=":2030176515_0_0" index="0" disallow="tram rail_urban rail rail_electric rail_fast ship" speed="8.33" length="4.99" shape="335.91,399.61 334.11,394.95"/>
    </edge>
    <edge id=":2030176515_1" function="internal">
        <lane id=":2030176515_1_0" index="0" disallow="tram rail_urban rail rail_electric rail_fast ship" speed="3.65" length="4.67" shape="335.91,399.61 336.23,398.20 336.83,397.54 337.72,397.62 338.90,398.46"/>
    </edge>
    <edge id=":2030176515_2" function="internal">
        <lane id=":2030176515_2_0" index="0" disallow="tram rail_urban rail rail_electric rail_fast ship" speed="8.33" length="5.00" shape="337.10,393.79 338.90,398.46"/>
    </edge>
    <edge id=":2030176515_3" function="internal">
        <lane id=":2030176515_3_0" index="0" disallow="tram rail_urban rail rail_electric rail_fast ship" speed="3.65" length="4.67" shape="337.10,393.79 336.79,395.20 336.18,395.86 335.29,395.78 334.11,394.95"/>
    </edge>
    <edge id=":250846392_0" function="internal">
        <lane id=":250846392_0_0" index="0" disallow="tram rail_urban rail rail_electric rail_fast ship" speed="8.33" length="4.95" shape="449.76,190.00 454.49,191.47"/>
    </edge>
    <edge id=":250846394_0" function="internal">
        <lane id=":250846394_0_0" index="0" disallow="tram rail_urban rail rail_electric rail_fast ship" speed="6.76" length="7.77" shape="397.90,135.19 398.94,138.10 399.90,140.17 400.77,141.41 401.56,141.80"/>
    </edge>
    <edge id=":250846394_1" function="internal">
        <lane id=":250846394_1_0" index="0" disallow="tram rail_urban rail rail_electric rail_fast ship" speed="3.65" length="4.67" shape="397.90,135.19 397.51,136.58 396.87,137.21 395.99,137.07 394.86,136.18"/>
    </edge>
    <edge id=":250846394_2" function="internal">
        <lane id=":250846394_2_0" index="0" disallow="tram rail_urban rail rail_electric rail_fast ship" speed="6.14" length="8.72" shape="390.65,142.29 393.10,141.49 394.62,140.21 395.21,138.44 394.86,136.18"/>
    </edge>
    <edge id=":250846394_3" function="internal">
        <lane id=":250846394_3_0" index="0" disallow="tram rail_urban rail rail_electric rail_fast ship" speed="8.33" length="10.95" shape="390.65,142.29 393.73,141.85 396.08,141.77 398.44,141.83 401.56,141.80"/>
    </edge>
    <edge id=":250846398_0" function="internal">
        <lane id=":250846398_0_0" index="0" disallow="tram rail_urban rail rail_electric rail_fast ship" speed="8.33" length="10.08" shape="507.49,243.77 506.81,240.86 506.64,238.78 506.34,236.74 505.28,233.99"/>
    </edge>
    <edge id=":250846398_1" function="internal">
        <lane id=":250846398_1_0" index="0" disallow="tram rail_urban rail rail_electric rail_fast ship" speed="3.65" length="2.46" shape="507.49,243.77 507.89,242.38 508.53,241.76 508.65,241.78"/>
    </edge>
    <edge id=":250846398_4" function="internal">
        <lane id=":250846398_4_0" index="0" disallow="tram rail_urban rail rail_electric rail_fast ship" speed="3.65" length="2.21" shape="508.65,241.78 509.41,241.90 510.54,242.80"/>
    </edge>
    <edge id=":250846398_2" function="internal">
        <lane id=":250846398_2_0" index="0" disallow="tram rail_urban rail rail_electric rail_fast ship" speed="5.83" length="6.48" shape="511.42,236.93 510.46,237.69 509.99,238.92 510.02,240.62 510.54,242.80"/>
    </edge>
    <edge id=":250846398_3" function="internal">
        <lane id=":250846398_3_0" index="0" disallow="tram rail_urban rail rail_electric rail_fast ship" speed="6.14" length="3.57" shape="511.42,236.93 509.58,237.38 507.94,237.04"/>
    </edge>
    <edge id=":250846398_5" function="internal">
        <lane id=":250846398_5_0" index="0" disallow="tram rail_urban rail rail_electric rail_fast ship" speed="6.14" length="4.10" shape="507.94,237.04 506.51,235.91 505.28,233.99"/>
    </edge>
    <edge id=":250846400_0" function="internal">
        <lane id=":250846400_0_0" index="0" disallow="tram rail_urban rail rail_electric rail_fast ship" speed="8.33" length="11.22" shape="600.28,141.24 594.74,131.48"/>
    </edge>
    <edge id=":250846400_1" function="internal">
        <lane id=":250846400_1_0" index="0" disallow="tram rail_urban rail rail_electric rail_fast ship" speed="3.65" length="4.67" shape="600.28,141.24 600.39,139.81 600.90,139.07 601.79,139.03 603.07,139.69"/>
    </edge>
    <edge id=":250846400_2" function="internal">
        <lane id=":250846400_2_0" index="0" disallow="tram rail_urban rail rail_electric rail_fast ship" speed="8.33" length="11.27" shape="597.51,129.88 603.07,139.69"/>
    </edge>
    <edge id=":250846400_3" function="internal">
        <lane id=":250846400_3_0" index="0" disallow="tram rail_urban rail rail_electric rail_fast ship" speed="3.65" length="4.67" shape="597.51,129.88 597.42,131.32 596.92,132.07 596.03,132.12 594.74,131.48"/>
    </edge>
    <edge id=":250846400_4" function="internal">
        <lane id=":250846400_4_0" index="0" disallow="tram rail_urban rail rail_electric rail_fast ship" speed="6.42" length="9.04" shape="592.55,139.02 594.57,137.56 595.61,135.82 595.66,133.79 594.74,131.48"/>
    </edge>
    <edge id=":250846400_5" function="internal">
        <lane id=":250846400_5_0" index="0" disallow="tram rail_urban rail rail_electric rail_fast ship" speed="7.41" length="11.77" shape="592.55,139.02 596.15,137.52 599.11,137.13 601.42,137.85 603.07,139.69"/>
    </edge>
    <edge id=":250846401_0" function="internal">
        <lane id=":250846401_0_0" index="0" disallow="tram rail_urban rail rail_electric rail_fast ship" speed="3.65" length="4.67" shape="511.40,0.92 511.37,-0.52 511.79,-1.31 512.68,-1.44 514.02,-0.92"/>
    </edge>
    <edge id=":250846402_0" function="internal">
        <lane id=":250846402_0_0" index="0" disallow="tram rail_urban rail rail_electric rail_fast ship" speed="6.57" length="8.73" shape="628.91,192.27 627.44,190.46 625.70,189.51 623.70,189.43 621.42,190.22"/>
    </edge>
    <edge id=":250846402_1" function="internal">
        <lane id=":250846402_1_0" index="0" disallow="tram rail_urban rail rail_electric rail_fast ship" speed="8.33" length="10.62" shape="628.91,192.27 623.61,183.07"/>
    </edge>
    <edge id=":250846402_2" function="internal">
        <lane id=":250846402_2_0" index="0" disallow="tram rail_urban rail rail_electric rail_fast ship" speed="3.65" length="4.67" shape="628.91,192.27 628.99,190.83 629.47,190.08 630.36,190.01 631.66,190.63"/>
    </edge>
    <edge id=":250846402_3" function="internal">
        <lane id=":250846402_3_0" index="0" disallow="tram rail_urban rail rail_electric rail_fast ship" speed="8.33" length="10.53" shape="626.41,181.51 631.66,190.63"/>
    </edge>
    <edge id=":250846402_4" function="internal">
        <lane id=":250846402_4_0" index="0" disallow="tram rail_urban rail rail_electric rail_fast ship" speed="7.12" length="11.38" shape="626.41,181.51 627.10,183.86 626.51,186.10 624.61,188.22 621.42,190.22"/>
    </edge>
    <edge id=":250846402_5" function="internal">
        <lane id=":250846402_5_0" index="0" disallow="tram rail_urban rail rail_electric rail_fast ship" speed="3.65" length="4.67" shape="626.41,181.51 626.29,182.95 625.79,183.69 624.89,183.73 623.61,183.07"/>
    </edge>
    <edge id=":250846403_0" function="internal">
        <lane id=":250846403_0_0" index="0" disallow="tram rail_urban rail rail_electric rail_fast ship" speed="8.33" length="11.23" shape="584.26,113.32 578.58,103.65"/>
    </edge>
    <edge id=":250846403_1" function="internal">
        <lane id=":250846403_1_0" index="0" disallow="tram rail_urban rail rail_electric rail_fast ship" speed="3.65" length="4.67" shape="584.26,113.32 584.35,111.89 584.85,111.14 585.74,111.09 587.03,111.73"/>
    </edge>
    <edge id=":250846403_2" function="internal">
        <lane id=":250846403_2_0" index="0" disallow="tram rail_urban rail rail_electric rail_fast ship" speed="8.33" length="11.27" shape="581.32,102.00 587.03,111.73"/>
    </edge>
    <edge id=":250846403_3" function="internal">
        <lane id=":250846403_3_0" index="0" disallow="tram rail_urban rail rail_electric rail_fast ship" speed="3.65" length="4.67" shape="581.32,102.00 581.25,103.44 580.77,104.20 579.88,104.27 578.58,103.65"/>
    </edge>
    <edge id=":250846403_4" function="internal">
        <lane id=":250846403_4_0" index="0" disallow="tram rail_urban rail rail_electric rail_fast ship" speed="6.43" length="9.03" shape="576.52,111.23 578.51,109.73 579.51,107.97 579.54,105.94 578.58,103.65"/>
    </edge>
    <edge id=":250846403_5" function="internal">
        <lane id=":250846403_5_0" index="0" disallow="tram rail_urban rail rail_electric rail_fast ship" speed="7.39" length="11.77" shape="576.52,111.23 580.09,109.66 583.03,109.22 585.34,109.91 587.03,111.73"/>
    </edge>
    <edge id=":250846412_0" function="internal">
        <lane id=":250846412_0_0" index="0" disallow="tram rail_urban rail rail_electric rail_fast ship" speed="6.95" length="7.87" shape="230.89,101.95 229.68,103.39 229.10,105.08 229.13,107.01 229.78,109.18"/>
    </edge>
    <edge id=":250846412_1" function="internal">
        <lane id=":250846412_1_0" index="0" disallow="tram rail_urban rail rail_electric rail_fast ship" speed="8.33" length="8.99" shape="230.89,101.95 223.94,107.65"/>
    </edge>
    <edge id=":250846413_0" function="internal">
        <lane id=":250846413_0_0" index="0" disallow="tram rail_urban rail rail_electric rail_fast ship" speed="8.33" length="7.39" shape="169.62,152.89 168.97,150.80 168.39,149.42 167.65,148.10 166.52,146.22"/>
    </edge>
    <edge id=":250846413_1" function="internal">
        <lane id=":250846413_1_0" index="0" disallow="tram rail_urban rail rail_electric rail_fast ship" speed="3.65" length="4.67" shape="169.62,152.89 170.06,151.51 170.71,150.91 171.59,151.07 172.70,152.00"/>
    </edge>
    <edge id=":250846413_2" function="internal">
        <lane id=":250846413_2_0" index="0" disallow="tram rail_urban rail rail_electric rail_fast ship" speed="6.02" length="5.27" shape="173.34,147.05 172.67,147.87 172.34,148.97 172.35,150.35 172.70,152.00"/>
    </edge>
    <edge id=":250846413_3" function="internal">
        <lane id=":250846413_3_0" index="0" disallow="tram rail_urban rail rail_electric rail_fast ship" speed="5.92" length="8.13" shape="173.34,147.05 171.31,148.30 169.49,148.58 167.90,147.89 166.52,146.22"/>
    </edge>
    <edge id=":250846413_4" function="internal">
        <lane id=":250846413_4_0" index="0" disallow="tram rail_urban rail rail_electric rail_fast ship" speed="8.33" length="8.19" shape="169.28,144.60 170.53,146.69 171.34,148.15 171.97,149.69 172.70,152.00"/>
    </edge>
    <edge id=":250846413_5" function="internal">
        <lane id=":250846413_5_0" index="0" disallow="tram rail_urban rail rail_electric rail_fast ship" speed="3.65" length="4.67" shape="169.28,144.60 169.20,146.04 168.71,146.79 167.82,146.85 166.52,146.22"/>
    </edge>
    <edge id=":250846431_0" function="internal">
        <lane id=":250846431_0_0" index="0" disallow="tram rail_urban rail rail_electric rail_fast ship" speed="3.65" length="4.67" shape="347.17,316.32 348.51,316.87 349.06,317.57 348.82,318.44 347.80,319.46"/>
    </edge>
    <edge id=":250846433_0" function="internal">
        <lane id=":250846433_0_0" index="0" disallow="tram rail_urban rail rail_electric rail_fast ship" speed="6.45" length="9.03" shape="327.85,256.36 330.19,255.52 331.68,254.13 332.31,252.20 332.09,249.72"/>
    </edge>
    <edge id=":250846434_0" function="internal">
        <lane id=":250846434_0_0" index="0" disallow="tram rail_urban rail rail_electric rail_fast ship" speed="6.52" length="8.44" shape="251.90,166.71 252.95,168.74 254.41,170.01 256.28,170.53 258.55,170.28"/>
    </edge>
    <edge id=":250846434_1" function="internal">
        <lane id=":250846434_1_0" index="0" disallow="tram rail_urban rail rail_electric rail_fast ship" speed="8.33" length="10.12" shape="249.14,173.86 251.80,172.50 253.69,171.66 255.66,171.03 258.55,170.28"/>
    </edge>
    <edge id=":250848834_0" function="internal">
        <lane id=":250848834_0_0" index="0" disallow="tram rail_urban rail rail_electric rail_fast ship" speed="3.65" length="4.67" shape="581.45,634.28 581.33,635.72 580.82,636.45 579.93,636.49 578.65,635.82"/>
    </edge>
    <edge id=":250848835_0" function="internal">
        <lane id=":250848835_0_0" index="0" disallow="tram rail_urban rail rail_electric rail_fast ship" speed="6.51" length="9.02" shape="562.48,609.99 564.52,608.59 565.62,606.87 565.79,604.84 565.02,602.49"/>
    </edge>
    <edge id=":250848835_1" function="internal">
        <lane id=":250848835_1_0" index="0" disallow="tram rail_urban rail rail_electric rail_fast ship" speed="3.65" length="4.67" shape="562.48,609.99 563.91,610.17 564.63,610.71 564.62,611.60 563.90,612.85"/>
    </edge>
    <edge id=":250848868_0" function="internal">
        <lane id=":250848868_0_0" index="0" disallow="tram rail_urban rail rail_electric rail_fast ship" speed="6.58" length="8.59" shape="446.60,577.00 446.86,579.27 446.33,581.15 445.03,582.65 442.94,583.75"/>
    </edge>
    <edge id=":250848873_0" function="internal">
        <lane id=":250848873_0_0" index="0" disallow="tram rail_urban rail rail_electric rail_fast ship" speed="6.47" length="9.03" shape="403.81,586.36 405.91,585.03 407.07,583.35 407.28,581.33 406.55,578.96"/>
    </edge>
    <edge id=":250848873_1" function="internal">
        <lane id=":250848873_1_0" index="0" disallow="tram rail_urban rail rail_electric rail_fast ship" speed="7.20" length="9.32" shape="403.81,586.36 406.26,585.61 408.46,585.68 410.42,586.55 412.14,588.25"/>
    </edge>
    <edge id=":250848878_0" function="internal">
        <lane id=":250848878_0_0" index="0" disallow="tram rail_urban rail rail_electric rail_fast ship" speed="8.33" length="11.25" shape="375.44,599.40 385.59,594.54"/>
    </edge>
    <edge id=":250848878_1" function="internal">
        <lane id=":250848878_1_0" index="0" disallow="tram rail_urban rail rail_electric rail_fast ship" speed="6.28" length="9.04" shape="375.44,599.40 377.83,598.61 379.82,598.82 381.42,600.03 382.61,602.25"/>
    </edge>
    <edge id=":250848879_0" function="internal">
        <lane id=":250848879_0_0" index="0" disallow="tram rail_urban rail rail_electric rail_fast ship" speed="7.86" length="13.94" shape="483.99,565.50 479.40,567.43 475.78,568.08 473.12,567.44 471.44,565.53"/>
    </edge>
    <edge id=":250848880_0" function="internal">
        <lane id=":250848880_0_0" index="0" disallow="tram rail_urban rail rail_electric rail_fast ship" speed="6.51" length="9.00" shape="501.61,562.83 500.19,560.82 498.46,559.74 496.43,559.60 494.10,560.39"/>
    </edge>
    <edge id=":250848880_1" function="internal">
        <lane id=":250848880_1_0" index="0" disallow="tram rail_urban rail rail_electric rail_fast ship" speed="8.33" length="11.13" shape="501.61,562.83 496.64,552.87"/>
    </edge>
    <edge id=":250848881_0" function="internal">
        <lane id=":250848881_0_0" index="0" disallow="tram rail_urban rail rail_electric rail_fast ship" speed="6.38" length="9.04" shape="528.35,541.27 526.04,542.21 524.02,542.15 522.29,541.10 520.86,539.06"/>
    </edge>
    <edge id=":250848882_0" function="internal">
        <lane id=":250848882_0_0" index="0" disallow="tram rail_urban rail rail_electric rail_fast ship" speed="6.52" length="8.65" shape="543.23,532.54 545.07,531.07 546.04,529.36 546.14,527.39 545.37,525.16"/>
    </edge>
    <edge id=":250848886_0" function="internal">
        <lane id=":250848886_0_0" index="0" disallow="tram rail_urban rail rail_electric rail_fast ship" speed="3.65" length="2.07" shape="565.77,524.55 565.96,523.12 566.34,522.63"/>
    </edge>
    <edge id=":250848886_2" function="internal">