<?xml version="1.0" encoding="UTF-8"?>

<!-- generated on 2023-04-03 20:36:11.796398 by randomTrips.py v1_15_0+0682-ef022823415
<configuration>
    <end value="10000"/>
    <length value="True"/>
    <net-file value="/home/toore/Tirocinio_SUMO/Scenario/Modena/osm.net.xml"/>
    <pedestrians value="True"/>
    <period value="1.4"/>
    <random value="True"/>
    <route-file value="peds.rou.xml"/>
    <seed value="10000"/>
    <trip-attributes value="type=&quot;DEFAULT_PEDTYPE&quot;"/>
</configuration>
-->

<!-- generated on Mon Apr  3 20:36:10 2023 by Eclipse SUMO duarouter Version 1.8.0
<configuration xmlns:xsi="http://www.w3.org/2001/XMLSchema-instance" xsi:noNamespaceSchemaLocation="http://sumo.dlr.de/xsd/duarouterConfiguration.xsd">

    <input>
        <net-file value="/home/toore/Tirocinio_SUMO/Scenario/Modena/osm.net.xml"/>
        <route-files value="trips.trips.xml"/>
    </input>

    <output>
        <output-file value="peds.rou.xml"/>
        <alternatives-output value="NUL"/>
    </output>

    <time>
        <begin value="0"/>
        <end value="10000"/>
    </time>

    <report>
        <no-warnings value="true"/>
        <ignore-errors value="true"/>
        <no-step-log value="true"/>
    </report>

</configuration>
-->

<routes xmlns:xsi="http://www.w3.org/2001/XMLSchema-instance" xsi:noNamespaceSchemaLocation="http://sumo.dlr.de/xsd/routes_file.xsd">
    <person id="0" type="DEFAULT_PEDTYPE" depart="0.00">
        <walk edges="23195328#3 23195328#2 388912103 -28718922#1 -185271779#1 23195794"/>
    </person>
    <person id="1" type="DEFAULT_PEDTYPE" depart="1.40">
        <walk edges="647789894 185096714 185096716#1 185096716#0 322548792#4 322548792#3 -322548792#2 -322548792#1 322548792#0"/>
    </person>
    <person id="2" type="DEFAULT_PEDTYPE" depart="2.80">
        <walk edges="522833720#0 -522833720#0 191979121 191979122"/>
    </person>
    <person id="3" type="DEFAULT_PEDTYPE" depart="4.20">
        <walk edges="23195752#2 996144772#1 -191959706#0 -191959706#1 28710410#2"/>
    </person>
    <person id="4" type="DEFAULT_PEDTYPE" depart="5.60">
        <walk edges="23196319 452767836#0 452767836#1 28709107#1 191979127#0 191979127#3 191959704#0 117561950 996022769#1 28710621#4"/>
    </person>
    <person id="5" type="DEFAULT_PEDTYPE" depart="7.00">
        <walk edges="23196319 452767836#0 452767836#1 28709107#1 191979127#0 191979127#3 191959704#0 117561950 167255138#1 995252090"/>
    </person>
    <person id="6" type="DEFAULT_PEDTYPE" depart="8.40">
        <walk edges="192464446 191987467#2 28729752 -185271780#1 -191987466 522431205 -191987465#0 191987465#1 522833744 522833741#1 458676577#2 1000553426#1 1000553424 522497449 23195328#0 1001467661 -545496366#1 322548792#10 322548792#8 997769913#1 997769915 23195750#4 23195750#3 28709110#2"/>
    </person>
    <person id="7" type="DEFAULT_PEDTYPE" depart="9.80">
        <walk edges="322548792#10 23195754#1 997944684 23195754#4 996364918 191979127#3 23195749#0"/>
    </person>
    <person id="8" type="DEFAULT_PEDTYPE" depart="11.20">
        <walk edges="474164620#0 661212190 190606088#1 184427434#0 522833732#1 522833729#1 998769537 998769538#1 -998769538#0 54704028#0 998769529 322548792#10 322548792#8 997944688#0"/>
    </person>
    <person id="9" type="DEFAULT_PEDTYPE" depart="12.60">
        <walk edges="996144772#1 23195752#0 23195754#5 23195754#4 997944684 23195754#2 -23196319"/>
    </person>
    <person id="10" type="DEFAULT_PEDTYPE" depart="14.00">
        <walk edges="23195499#2 -23195499#2 485720696 -397927055#0"/>
    </person>
    <person id="11" type="DEFAULT_PEDTYPE" depart="15.40">
        <walk edges="1000553428 28718918#1 28718918#2 23195328#4 23195328#3 23195328#2 23195328#1 23195328#0 429515619#0 647789892"/>
    </person>
    <person id="12" type="DEFAULT_PEDTYPE" depart="16.80">
        <walk edges="545660374#1 645997037 28719191#1 545722931 545722933#1 656804230 191979118#1 1094949083 23195325#1 1095603369#1 1095603369#0 1095603370#1 1095603370#4 1095603371#1 1095603363 1094949085#1 64973455#0 64973455#1 116985957#1 23195339 997769913#1 997769915 23195750#4 23195750#3 23195750#1 23195750#0 28710621#1"/>
    </person>
    <person id="13" type="DEFAULT_PEDTYPE" depart="18.20">
        <walk edges="-191987466 522431205 -191987465#0 191987465#1 522833744 522833741#1 -185271779#1 522833731#1 522833732#1 522833729#1 28998778#2 28998778#3 28998778#0 1002422788 1002422790 353382752 -28998663"/>
    </person>
    <person id="14" type="DEFAULT_PEDTYPE" depart="19.60">
        <walk edges="28719191#5 23195744"/>
    </person>
    <person id="15" type="DEFAULT_PEDTYPE" depart="21.00">
        <walk edges="23195798 474164620#0 661212190 190606088#1 184427434#0 522833732#1 522833729#1 998769537 998769538#1 -998769538#0 54704028#0 998769529 322548792#10 322548792#8 997769913#1 997769915 23195750#4 23195750#3 993884076#1"/>
    </person>
    <person id="16" type="DEFAULT_PEDTYPE" depart="22.40">
        <walk edges="522833752#1 1001467663 23195328#4 191979118#0 656804230 545722933#1 545722931 28719191#1 645997037 645997041 645997039 23195330#0 28719191#4 28719191#5"/>
    </person>
    <person id="17" type="DEFAULT_PEDTYPE" depart="23.80">
        <walk edges="996022767 191959714 522833721 -191979122 -191979121 522833720#0 28998778#2 522833729#1 522833732#1 522833731#1 185271779#1 522833741#1 522833744 1001467663 23195328#4 191979118#0 656804230 545722933#1 545722931 28719191#1 645997037 645997038 23195329#1"/>
    </person>
    <person id="18" type="DEFAULT_PEDTYPE" depart="25.20">
        <walk edges="995252090 167255138#1 996022767 191959714 -522833721 -191979122 -191979121 522833720#0 28998778#3 28998778#0 1002422788 1002422790 353382752 -28998663"/>
    </person>
    <person id="19" type="DEFAULT_PEDTYPE" depart="26.60">
        <walk edges="28708934#0 998769537 522833729#1 522833732#1 522833731#1 998769536#1"/>
    </person>
    <person id="20" type="DEFAULT_PEDTYPE" depart="28.00">
        <walk edges="545660374#1 645997038 23195329#1 116632638#0 -522431210#1 539483270 184427426#4"/>
    </person>
    <person id="21" type="DEFAULT_PEDTYPE" depart="29.40">
        <walk edges="998769536#1 522833731#1 522833732#1 522833729#1 998769537 998769538#1 -998769538#0 54704028#0 998769529 -322548792#10"/>
    </person>
    <person id="22" type="DEFAULT_PEDTYPE" depart="30.80">
        <walk edges="522833741#1 -185271779#1 23195794 190606088#0"/>
    </person>
    <person id="23" type="DEFAULT_PEDTYPE" depart="32.20">
        <walk edges="-28719125#0 191979118#0 656804230 545722933#1 545722931 28719191#1 645997037 545660374#1"/>
    </person>
    <person id="24" type="DEFAULT_PEDTYPE" depart="33.60">
        <walk edges="-23195499#2 -23195499#1 23195499#0 522833744 522833741#1 28999595#1"/>
    </person>
    <person id="25" type="DEFAULT_PEDTYPE" depart="35.00">
        <walk edges="28998778#2 522833729#1 522833732#1 522833731#1 185271779#1 522833741#1 522833744 -191987465#1 -191987465#0 522431205 123592772#1 123592772#2 190606077#2 190606077#3 190606077#4 29033735"/>
    </person>
    <person id="26" type="DEFAULT_PEDTYPE" depart="36.40">
        <walk edges="-522431210#1 -185271780#1 -191987466 522431205 191987465#0 191987465#1 522833744 522833741#1 -185271779#1 522833731#1 522833732#1 522833729#1 28998778#2 -522833720#0 191979121 191979122 522833721 -191959714 996022767 167255138#1 995252090"/>
    </person>
    <person id="27" type="DEFAULT_PEDTYPE" depart="37.80">
        <walk edges="-435838563 655717642 655717652 545476129#2 545476129#3 655717649#0 655717649#1 539419146#2 539419145#1 655717649#3 655717649#4 655717648 539419147#1 29033731"/>
    </person>
    <person id="28" type="DEFAULT_PEDTYPE" depart="39.20">
        <walk edges="32062050#1 655717650#0 655717650#1 -485720694 -485720696 484335723#0 484335723#1 484335723#2 190606081 190606089 191785971 23195794 522833731#1 522833732#1 522833729#1 998769537 998769538#1 -998769538#0 54704028#0 998769529 322548792#10 322548792#8 997769913#1 997769915 322548792#4"/>
    </person>
    <person id="29" type="DEFAULT_PEDTYPE" depart="40.60">
        <walk edges="-28710755#0 28710755#2 996144772#1 191979127#0 28709107#1 28709107#0 522833720#0 28998778#2 522833729#1 522833732#1 522833731#1 23195794 191785971 190606089 190606081 484335723#2 484335723#1 484335723#0 485720696 539419136 539419145#1 655717649#3 545476127#1 545476127#0 -23195496"/>
    </person>
    <person id="30" type="DEFAULT_PEDTYPE" depart="42.00">
        <walk edges="185271769 -185271769 -474164621 397425078 23195798 191785971 23195794 998769535#1 998769535#0 998769540#0 998769540#1 998769532 429515619#0 429515619#1 429515619#2 1094949085#0 1094949085#1 1094949085#2 23195340#0 185096714 185096716#1 28729036 28729034#1"/>
    </person>
    <person id="31" type="DEFAULT_PEDTYPE" depart="43.40">
        <walk edges="544210703#0 429515619#1 429515619#0 998769532 998769540#1 998769540#0 998769535#0 998769535#1 23195794 191785971 190606089 190606081 484335723#2 484335723#1 484335723#0 485720696 -397927055#0"/>
    </person>
    <person id="32" type="DEFAULT_PEDTYPE" depart="44.80">
        <walk edges="28999595#1 522833741#1 522833744 1001467663 23195328#4 191979118#0 656804230 545722933#1 545722931 28719191#1 645997037 645997041 645997039 23195330#0 28719191#4"/>
    </person>
    <person id="33" type="DEFAULT_PEDTYPE" depart="46.20">
        <walk edges="193099645#0 191871225#0 28998663 353382752 1002422790 1002422788 28998778#0 28998778#3 28998778#2 522833729#1 522833732#1 522833731#1 185271779#1 522833741#1 522833744 -191987465#1 -191987465#0 522431205 191987466 185271780#1 -28729752 29072595 -1000553429"/>
    </person>
    <person id="34" type="DEFAULT_PEDTYPE" depart="47.60">
        <walk edges="28729034#1 28729036 185096716#1 116985957#3 116985957#2 116985957#1 116985957#0 23195336#1"/>
    </person>
    <person id="35" type="DEFAULT_PEDTYPE" depart="49.00">
        <walk edges="458676577#2 522833741#1 522833744 23195499#0 -23195499#1 -23195499#2 485720696 -397927055#0 23195736"/>
    </person>
    <person id="36" type="DEFAULT_PEDTYPE" depart="50.40">
        <walk edges="28710410#2 997769915 997769913#1 23195339 116985957#1 64973455#1 64973455#0 1094949085#1 1095603363 1095603371#1 1095603370#4 1095603370#1 1095603369#0 1095603369#1 23195325#1 544210701 1094949084 544210703#1 192464435"/>
    </person>
    <person id="37" type="DEFAULT_PEDTYPE" depart="51.80">
        <walk edges="193099645#2 23683441#0 23683441#1 28709107#0 452767836#1 452767836#0 545477613#2 545477613#1 545477613#0 -998769538#0 54704028#0 54704028#1 998769539 998769531"/>
    </person>
    <person id="38" type="DEFAULT_PEDTYPE" depart="53.20">
        <walk edges="28710621#1 23195750#0 23195750#1 23195750#3 23195750#4 997769915 997769913#1 23195339 116985957#1 64973455#1 64973455#0 1094949085#1 1094949085#0"/>
    </person>
    <person id="39" type="DEFAULT_PEDTYPE" depart="54.60">
        <walk edges="-23196319 545477613#2 545477613#1 545477613#0 998769538#1 998769537 522833729#1 522833732#1 184427434#0 190606088#1 661212190 474164620#2 28999218"/>
    </person>
    <person id="40" type="DEFAULT_PEDTYPE" depart="56.00">
        <walk edges="28709110#0 -191959706#1 -191959706#0 996144772#1 191979127#3 191959704#0 117561950 167255138#1 28709109#0 23195500#2"/>
    </person>
    <person id="41" type="DEFAULT_PEDTYPE" depart="57.40">
        <walk edges="-23195499#2 23195734 461160629"/>
    </person>
    <person id="42" type="DEFAULT_PEDTYPE" depart="58.80">
        <walk edges="998769538#1 545477613#0 545477613#1 545477613#2 452767836#0 452767836#1 28709107#1 191979127#0 191979127#3 191959704#0 117561950 167255138#1 995252090"/>
    </person>
    <person id="43" type="DEFAULT_PEDTYPE" depart="60.20">
        <walk edges="117561950 191959704#1 -522833721 -191979122 -191979121 522833720#0 28998778#2 -998769537"/>
    </person>
    <person id="44" type="DEFAULT_PEDTYPE" depart="61.60">
        <walk edges="184427426#3 539483270 -185271780#1 -191987466 522431205 191987465#0 191987465#1 522833744 522833741#1 -185271779#1 522833731#1 522833732#1 522833729#1 28998778#2 28998778#3 28998778#0 1002422788 1002422790 353382752 -28998663"/>
    </person>
    <person id="45" type="DEFAULT_PEDTYPE" depart="63.00">
        <walk edges="23195501#1 28998778#2 28998778#3 28998778#0 1002422788 1002422790 353382752 -28998663 191871225#1"/>
    </person>
    <person id="46" type="DEFAULT_PEDTYPE" depart="64.40">
        <walk edges="28999595#1 -185271779#1 23195794 191785971 23195798"/>
    </person>
    <person id="47" type="DEFAULT_PEDTYPE" depart="65.80">
        <walk edges="1094949084 544210703#1 192464435 23195328#3 23195328#4 28718918#2 28718918#1"/>
    </person>
    <person id="48" type="DEFAULT_PEDTYPE" depart="67.20">
        <walk edges="28999595#1 458676577#2 1000553426#1 1000553424 522497449 23195328#0 1001467661 -545496366#1 322548792#10 322548792#8 997769913#1 997769915 322548792#4"/>
    </person>
    <person id="49" type="DEFAULT_PEDTYPE" depart="68.60">
        <walk edges="193099645#0 191871225#0 191871225#1 191871225#2 191871225#3 655693839 655693840 190606083 184427443 184427434#0"/>
    </person>
    <person id="50" type="DEFAULT_PEDTYPE" depart="70.00">
        <walk edges="1095603371#1 1095603363 1094949085#0 429515619#2 429515619#1 429515619#0 998769532 998769540#1 998769540#0 998769535#0 998769535#1 522833731#1 522833732#1 522833729#1 28998778#2 -522833720#0 191979121 191979122 522833721 -191959714 23195502#1"/>
    </person>
    <person id="51" type="DEFAULT_PEDTYPE" depart="71.40">
        <walk edges="28719125#0 23195328#4 23195328#3 23195328#2 23195328#1 23195328#0 1001467661 -545496366#1 322548792#10 322548792#8 997769913#1 997769915 23195750#4 23195750#3 23195750#1 23195750#0 28710621#1"/>
    </person>
    <person id="52" type="DEFAULT_PEDTYPE" depart="72.80">
        <walk edges="23195736 461160629 522431205 191987466 185271780#1 -28729752 28729524"/>
    </person>
    <person id="53" type="DEFAULT_PEDTYPE" depart="74.20">
        <walk edges="29033731 190606077#0 23195734 -23195499#2 484335723#0 484335723#1 484335723#2 190606081 190606089 191785971 190606088#0 190606088#1 184427443 23195792#0"/>
    </person>
    <person id="54" type="DEFAULT_PEDTYPE" depart="75.60">
        <walk edges="192464446 191987467#2 28729752 -185271780#1 -191987466 522431205 -191987465#0 191987465#1 522833744 522833741#1 458676577#2 1000553426#1 1000553424 522497449 23195328#0 1001467661 -545496366#1 322548792#10 322548792#8 997769913#1 997769915 28710410#2 -23195751#2 -23195751#1 23195751#1"/>
    </person>
    <person id="55" type="DEFAULT_PEDTYPE" depart="77.00">
        <walk edges="-32062050#0 655717650#0 655717650#1 -485720694 -485720696 484335723#0 484335723#1 484335723#2 190606081 190606089 191785971 23195794 522833731#1 522833732#1 522833729#1 998769537 998769538#1 -998769538#0 54704028#0 998769529 322548792#10 322548792#8 997769913#1 997769915 23195750#4 23195750#3 23195750#1 23195750#0"/>
    </person>
    <person id="56" type="DEFAULT_PEDTYPE" depart="78.40">
        <walk edges="28998778#1 28998778#0 28998778#3 -522833720#0 191979121 191979122 522833721 -191959714 -191959712#0 184157394 23195500#0 606454892"/>
    </person>
    <person id="57" type="DEFAULT_PEDTYPE" depart="79.80">
        <walk edges="190606077#0 23195734 -23195499#1 23195499#0 522833744 522833741#1 -185271779#1 522833731#1 522833732#1 522833729#1 28998778#2 -522833720#0 191979121 191979122 522833721 -191959714 -191959712#0 -27119325"/>
    </person>
    <person id="58" type="DEFAULT_PEDTYPE" depart="81.20">
        <walk edges="1000553428 28718918#1 28718918#2 23195328#4 23195328#3 23195328#2 23195328#1 23195328#0 1001467661 -545496366#1 322548792#10 322548792#8 997769913#1 997769915 23195750#4 23195750#3 23195750#1 23195750#0"/>
    </person>
    <person id="59" type="DEFAULT_PEDTYPE" depart="82.60">
        <walk edges="-116632638#2 116632638#2 23195330#1 645997039 645997041 645997037 28719191#1 545722931 545722933#1 656804230 191979118#0 23195328#4 1001467663 522833744 522833741#1 -185271779#1 522833731#1 184427434#0 184427443"/>
    </person>
    <person id="60" type="DEFAULT_PEDTYPE" depart="84.00">
        <walk edges="998769538#1 -998769538#0 54704028#0 54704028#1 998769539 998769533 998769532 429515619#0 429515619#1 429515619#2 544210702#0 1095603362 1095603367#1 1095603367#0 1095603370#2 1095603369#0 1095603369#1 1095603364#1"/>
    </person>
    <person id="61" type="DEFAULT_PEDTYPE" depart="85.40">
        <walk edges="-23195499#1 23195734 190606077#0 190606077#1 123592772#2 23196322#1 29033732"/>
    </person>
    <person id="62" type="DEFAULT_PEDTYPE" depart="86.80">
        <walk edges="522497449 23195328#0 1001467661 -545496366#1 322548792#10 322548792#8 997935758#1 997944679#1 23195755#3 28710755#2 28710751#0"/>
    </person>
    <person id="63" type="DEFAULT_PEDTYPE" depart="88.20">
        <walk edges="522833721 -191979122 -191979121 522833720#0 28998778#2 522833729#1 522833732#1 522833731#1 23195794 191785971 190606089 190606081 484335723#2 484335723#1 484335723#0 485720696 -397927055#0 191987468#1"/>
    </person>
    <person id="64" type="DEFAULT_PEDTYPE" depart="89.60">
        <walk edges="23195500#2 23195500#1 23195500#0 184157394 191959712#0 191959714 -522833721 -191979122 -191979121 522833720#0 28998778#2 522833729#1 522833732#1 522833731#1 185271779#1 522833741#1 522833744 1001467663 23195328#4 191979118#0 656804230 545722933#1 545722931 28719191#1 645997037 645997041 645997039 23195330#0 28719191#4 28719191#5"/>
    </person>
    <person id="65" type="DEFAULT_PEDTYPE" depart="91.00">
        <walk edges="-28729752 28729752 539483270 184427426#3 190606077#5 190606077#4 587561458 29033734#0 190606079#0 190606079#1 539419137#1 191987468#1"/>
    </person>
    <person id="66" type="DEFAULT_PEDTYPE" depart="92.40">
        <walk edges="-522833738 522833732#1 522833729#1 28998778#2 28998778#3 28998778#0 1002422788 1002422790 353382752 -28998663 191871225#0 193099645#0"/>
    </person>
    <person id="67" type="DEFAULT_PEDTYPE" depart="93.80">
        <walk edges="28710689 28710621#5 167255138#1 117561950 191959704#0 191979127#3 996144772#1 -191959706#0 192464423#1 997769913#1"/>
    </person>
    <person id="68" type="DEFAULT_PEDTYPE" depart="95.20">
        <walk edges="997769913#1 28719327 28719193"/>
    </person>
    <person id="69" type="DEFAULT_PEDTYPE" depart="96.60">
        <walk edges="539483273 184427426#3 539483270 -185271780#1 -191987466 522431205 191987465#0 191987465#1 522833744 522833741#1 -185271779#1 522833731#1 522833732#1 522833729#1 23195501#1"/>
    </person>
    <person id="70" type="DEFAULT_PEDTYPE" depart="98.00">
        <walk edges="28710621#0 28710621#1 28710621#2 28710621#3 996022769#1 996022767 23195502#1"/>
    </person>
    <person id="71" type="DEFAULT_PEDTYPE" depart="99.40">
        <walk edges="23195325#0 23195325#1 544210701 1094949084 544210703#1 192464435 23195328#3 1001467663 23195499#0 -23195499#1 -23195499#2 485720696 -485720694 655717650#1 655717650#0 -32062050#0"/>
    </person>
    <person id="72" type="DEFAULT_PEDTYPE" depart="100.80">
        <walk edges="116632638#2 23195330#1 645997039 645997041 645997037 28719191#1 545722931 545722933#1 656804230 191979118#0 23195328#4 1001467663 522833744 522833741#1 -185271779#1 522833731#1 522833732#1 522833729#1 28998778#2 -522833720#0 -191979121"/>
    </person>
    <person id="73" type="DEFAULT_PEDTYPE" depart="102.20">
        <walk edges="28710755#0 996144770"/>
    </person>
    <person id="74" type="DEFAULT_PEDTYPE" depart="103.60">
        <walk edges="-184427426#3 539483270 -28729752 -191987467#2 1096787480 446644391#1 549125785 549125786#1"/>
    </person>
    <person id="75" type="DEFAULT_PEDTYPE" depart="105.00">
        <walk edges="28999595#1 522833741#1 522833744 23195499#0 -23195499#1 -23195499#2 485720696 539419136 539419145#1 655717649#3 545476127#1 545476127#0 -23195496"/>
    </person>
    <person id="76" type="DEFAULT_PEDTYPE" depart="106.40">
        <walk edges="116632638#0 -522431210#1 -185271780#1 -191987466 522431205 191987465#0 191987465#1 522833744 522833741#1 -185271779#1 522833731#1 522833732#1 522833729#1 28998778#2 -191979123"/>
    </person>
    <person id="77" type="DEFAULT_PEDTYPE" depart="107.80">
        <walk edges="192464423#1 997769913#1 -322548792#8 322548792#10 998769529 54704028#0 998769538#0 998769538#1 998769537 522833729#1 522833732#1 522833731#1 23195794 191785971 190606089 190606081 484335723#2 484335723#1 484335723#0 485720696 -397927055#0 191987468#1"/>
    </person>
    <person id="78" type="DEFAULT_PEDTYPE" depart="109.20">
        <walk edges="28718918#1 28718918#2 23195328#4 23195328#3 23195328#2 23195328#1 23195328#0 1001467661 -545496366#1 322548792#10 322548792#8 997769913#1 997769915 322548792#4 322548792#3 -322548792#2 -322548792#1"/>
    </person>
    <person id="79" type="DEFAULT_PEDTYPE" depart="110.60">
        <walk edges="23195339 116985957#1 64973455#1 64973455#0 1094949085#1 1094949085#0 429515619#2 429515619#1 429515619#0 23195328#0 522497449 1000553424 1000553426#1 458676577#2 522833741#1 522833744 -191987465#1 -191987465#0 522431205 123592772#1 123592772#2 190606077#2"/>
    </person>
    <person id="80" type="DEFAULT_PEDTYPE" depart="112.00">
        <walk edges="23195800 191871225#1 191871225#0 193099645#1 193099645#2 191979122 522833721 -191959714 -191959712#0 184157394 23195500#0 23195500#1 23195500#2"/>
    </person>
    <person id="81" type="DEFAULT_PEDTYPE" depart="113.40">
        <walk edges="-28718922#1 -185271779#1 522833731#1 522833732#1 522833729#1 28998778#2 28998778#3 28998778#0 1002422788 1002422790"/>
    </person>
    <person id="82" type="DEFAULT_PEDTYPE" depart="114.80">
        <walk edges="191959712#0 191959714 522833721 -191979122 -191979121 522833720#0 28998778#2 522833729#1 522833732#1 522833731#1 185271779#1 522833741#1 522833744 1001467663 23195328#4 191979118#0 656804230 545722933#1 545722931 28719191#1 645997037 645997041 645997039 23195330#1 116632638#2"/>
    </person>
    <person id="83" type="DEFAULT_PEDTYPE" depart="116.20">
        <walk edges="998769537 28998778#2 -522833720#0 191979121 191979122 522833721 -191959714 -191959712#0"/>
    </person>
    <person id="84" type="DEFAULT_PEDTYPE" depart="117.60">
        <walk edges="23195792#0 522833732#1 522833731#1 185271779#1 522833741#1 522833744 1001467663 23195328#4 28719125#0"/>
    </person>
    <person id="85" type="DEFAULT_PEDTYPE" depart="119.00">
        <walk edges="-322548792#5 997769913#1 -322548792#8 322548792#10 545496366#1 998769531 998769533 998769540#1"/>
    </person>
    <person id="86" type="DEFAULT_PEDTYPE" depart="120.40">
        <walk edges="29033735 190606077#5 184427426#3 539483270 522431210#1 116632638#0 116632638#1 116632638#2 -116632638#2"/>
    </person>
    <person id="87" type="DEFAULT_PEDTYPE" depart="121.80">
        <walk edges="522833724 995665523 191959714 522833721 -191979122 -191979121 522833720#0 28998778#2 522833729#1 522833732#1 522833731#1 23195794 191785971 190606089 190606081 484335723#2 484335723#1 484335723#0 485720696 397927055#0"/>
    </person>
    <person id="88" type="DEFAULT_PEDTYPE" depart="123.20">
        <walk edges="28729036 185096716#1 185096714 23195340#0 1094949085#2 1094949085#1 1095603363 1095603371#1 1095603370#3 1095603367#0 1095603367#1 1095603362 544210702#1"/>
    </person>
    <person id="89" type="DEFAULT_PEDTYPE" depart="124.60">
        <walk edges="-522833746 -185271779#1 522833731#1 522833732#1 522833729#1 28998778#2 28998778#3 28998778#0 1002422788 1002422790 353382752 -28998663 191871225#0 193099645#0"/>
    </person>
    <person id="90" type="DEFAULT_PEDTYPE" depart="126.00">
        <walk edges="996022767 191959712#0"/>
    </person>
    <person id="91" type="DEFAULT_PEDTYPE" depart="127.40">
        <walk edges="191979122 -191979121 522833720#0 28998778#2 522833729#1 522833732#1 522833731#1 185271779#1 522833741#1 522833744 -191987465#1 -191987465#0 522431205 191987466 185271780#1 -28729752 29072595 1000553429"/>
    </person>
    <person id="92" type="DEFAULT_PEDTYPE" depart="128.80">
        <walk edges="23683441#1 470027848 28998778#3 28998778#2 522833729#1 522833732#1 522833731#1 185271779#1 522833741#1 522833744 23195499#0 -23195499#1 23195734 190606077#0 29033731"/>
    </person>
    <person id="93" type="DEFAULT_PEDTYPE" depart="130.20">
        <walk edges="184427434#0"/>
    </person>
    <person id="94" type="DEFAULT_PEDTYPE" depart="131.60">
        <walk edges="998769533 998769531 545496366#1 322548792#10 322548792#8 997769913#1 997769915 322548792#4 647483359#1 647483360#1 647483358"/>
    </person>
    <person id="95" type="DEFAULT_PEDTYPE" depart="133.00">
        <walk edges="1095603365#0 1095603372#2 1095603363 1094949085#0 429515619#2 429515619#1 429515619#0 23195328#0 522497449 1000553424 1000553426#1 458676577#2 522833741#1 522833744 23195499#0 -23195499#1 23195734 461160629"/>
    </person>
    <person id="96" type="DEFAULT_PEDTYPE" depart="134.40">
        <walk edges="116632638#2 -116632638#1 -116632638#0 -522431210#1 -185271780#1 -191987466 522431205 461160629"/>
    </person>
    <person id="97" type="DEFAULT_PEDTYPE" depart="135.80">
        <walk edges="23195501#1 522833729#1 522833732#1 522833731#1 185271779#1 522833741#1 522833744 -191987465#1 -191987465#0 -522833753"/>
    </person>
    <person id="98" type="DEFAULT_PEDTYPE" depart="137.20">
        <walk edges="28998778#1 28998778#0 28998778#3 28998778#2 23195501#1"/>
    </person>
    <person id="99" type="DEFAULT_PEDTYPE" depart="138.60">
        <walk edges="544210703#0 429515619#2 544210702#0 544210702#1 544210701 1094949083 191979118#1 656804230 545722933#1 545722931 28719191#1 645997037 545660374#1"/>
    </person>
    <person id="100" type="DEFAULT_PEDTYPE" depart="140.00">
        <walk edges="-28719125#0 28719125#1 23195499#0 -23195499#1 -23195499#2 485720696 -397927055#0 191987468#1 539419137#1"/>
    </person>
    <person id="101" type="DEFAULT_PEDTYPE" depart="141.40">
        <walk edges="29033802 191987468#1 397927055#0 -485720696 484335723#0 484335723#1 484335723#2 190606081 190606089 191785971 23195794 522833731#1 522833732#1 522833729#1 28998778#2 -522833720#0 191979121 191979122 522833721 -191959714 23195502#1"/>
    </person>
    <person id="102" type="DEFAULT_PEDTYPE" depart="142.80">
        <walk edges="998798218 545496366#1 1001467661 23195328#0 23195328#1 23195328#2 23195328#3 23195328#4 191979118#0 656804230 545722933#1 545722931 28719191#1 645997037 645997041 645997039 23195330#1"/>
    </person>
    <person id="103" type="DEFAULT_PEDTYPE" depart="144.20">
        <walk edges="23195500#2 23195500#1 23195500#0 184157394 191959712#0 191959714 -522833721 -191979122 -191979121 522833720#0 28998778#3 28998778#0 28998778#1"/>
    </person>
    <person id="104" type="DEFAULT_PEDTYPE" depart="145.60">
        <walk edges="23196322#0 539483270 -185271780#1 191987466"/>
    </person>
    <person id="105" type="DEFAULT_PEDTYPE" depart="147.00">
        <walk edges="23195339 116985957#0 23195336#1 647789889 998769531 998769539 54704028#1 54704028#0 998769538#0 998769538#1 998769537 28998662#1 28998662#0 191871225#2 23195800"/>
    </person>
    <person id="106" type="DEFAULT_PEDTYPE" depart="148.40">
        <walk edges="28708934#1 28708935#0 28708935#1 522833732#1 522833729#1 28998662#1"/>
    </person>
    <person id="107" type="DEFAULT_PEDTYPE" depart="149.80">
        <walk edges="28719327 997769913#1 -322548792#8 322548792#10 998769529 54704028#0 998769538#0 998769538#1 998769537 28998778#2 -191979123"/>
    </person>
    <person id="108" type="DEFAULT_PEDTYPE" depart="151.20">
        <walk edges="23195798 474164620#0 661212190 190606088#1 184427434#0 522833732#1 522833729#1 28998778#2 -522833720#0 191979121 191979122 522833721 -191959714 996022767 167255138#1 28710621#5"/>
    </person>
    <person id="109" type="DEFAULT_PEDTYPE" depart="152.60">
        <walk edges="545660374#1 645997037 28719191#1 545722931 545722933#1 656804230 191979118#0 23195328#4 23195328#3 23195328#2 23195328#1 23195328#0 1001467661 -545496366#1 -322548792#10"/>
    </person>
    <person id="110" type="DEFAULT_PEDTYPE" depart="154.00">
        <walk edges="191979127#3 191979127#0 28709107#1 28709107#0 522833720#0 28998778#2 522833729#1 522833732#1 522833731#1 185271779#1 522833741#1 522833744 -191987465#1 -191987465#0 522431205 191987466 185271780#1 522431210#1 -116632638#0"/>
    </person>
    <person id="111" type="DEFAULT_PEDTYPE" depart="155.40">
        <walk edges="484372692 1096787480 191987467#2 28729752 -185271780#1 -191987466 522431205 191987465#0 191987465#1 522833744 545476129#5 484335723#1 484335723#2 190606085"/>
    </person>
    <person id="112" type="DEFAULT_PEDTYPE" depart="156.80">
        <walk edges="-522833746 522833741#1 522833744 23195499#0 -23195499#1 -23195499#2 485720696 -397927055#0 191987468#1 29033802"/>
    </person>
    <person id="113" type="DEFAULT_PEDTYPE" depart="158.20">
        <walk edges="116632638#2 23195330#1 645997039 645997041 645997037 28719191#1 545722931 545722933#1 656804230 191979118#0 23195328#4 1001467663 522833744 522833741#1 -185271779#1 522833731#1 522833732#1 522833729#1 28998778#2 28998778#3 470027848 23683441#0 193099645#2"/>
    </person>
    <person id="114" type="DEFAULT_PEDTYPE" depart="159.60">
        <walk edges="29033734#2 29033734#1 29033734#0 190606079#0 190606079#1 539419137#1 539419147#1 655717648 655717649#4 655717649#3 539419145#1 539419146#2 655717649#1 655717649#0 545476129#3 545476129#2 655717652 655717642 -435838563 397425078 474164620#0 23195793"/>
    </person>
    <person id="115" type="DEFAULT_PEDTYPE" depart="161.00">
        <walk edges="23195500#2 28709109#0 167255138#1 117561950 191959704#0 191979127#3 996144772#1 -191959706#0 192464423#1 28719327"/>
    </person>