<?xml version="1.0" encoding="UTF-8"?>

<!-- generated on 2022-12-02 16:34:50.143798 by randomTrips.py v1_15_0+0682-ef022823415
<configuration>
    <end value="1000"/>
    <length value="True"/>
    <max-distance value="800.0"/>
    <net-file value="/home/toore/Scrivania/Tirocinio/MOdena/Modena.net.xml"/>
    <pedestrians value="True"/>
    <period value="1.4"/>
    <random value="True"/>
    <random-depart value="True"/>
    <route-file value="peds.rou.xml"/>
    <seed value="10000"/>
    <trip-attributes value="type=&quot;DEFAULT_PEDTYPE&quot;"/>
</configuration>
-->

<routes xmlns:xsi="http://www.w3.org/2001/XMLSchema-instance" xsi:noNamespaceSchemaLocation="http://sumo.dlr.de/xsd/routes_file.xsd">
    <person id="0" depart="2.80" type="DEFAULT_PEDTYPE">
        <walk from="23195339" to="-185271779#1"/>
    </person>
    <person id="1" depart="3.40" type="DEFAULT_PEDTYPE">
        <walk from="-484338319#0" to="192464446#4"/>
    </person>
    <person id="2" depart="3.60" type="DEFAULT_PEDTYPE">
        <walk from="192464446#4" to="-620362112#0"/>
    </person>
    <person id="3" depart="6.00" type="DEFAULT_PEDTYPE">
        <walk from="-23683467#3" to="333903317#1"/>
    </person>
    <person id="4" depart="7.80" type="DEFAULT_PEDTYPE">
        <walk from="-28702728" to="-116632638#6"/>
    </person>
    <person id="5" depart="8.20" type="DEFAULT_PEDTYPE">
        <walk from="455159002#0" to="435838968#0"/>
    </person>
    <person id="6" depart="8.40" type="DEFAULT_PEDTYPE">
        <walk from="-192464442#0" to="28729752"/>
    </person>
    <person id="7" depart="9.00" type="DEFAULT_PEDTYPE">
        <walk from="23195794" to="192611779#3"/>
    </person>
    <person id="8" depart="9.80" type="DEFAULT_PEDTYPE">
        <walk from="-620961345#0" to="1094949083"/>
    </person>
    <person id="9" depart="11.40" type="DEFAULT_PEDTYPE">
        <walk from="191555584" to="-435838968#1"/>
    </person>
    <person id="10" depart="11.80" type="DEFAULT_PEDTYPE">
        <walk from="655693842#0" to="680627394"/>
    </person>
    <person id="11" depart="13.00" type="DEFAULT_PEDTYPE">
        <walk from="451455823#3" to="23195501#1"/>
    </person>
    <person id="12" depart="13.20" type="DEFAULT_PEDTYPE">
        <walk from="-490516821#1" to="29033735"/>
    </person>
    <person id="13" depart="14.40" type="DEFAULT_PEDTYPE">
        <walk from="-481676086#0" to="184899649#3"/>
    </person>
    <person id="14" depart="14.40" type="DEFAULT_PEDTYPE">
        <walk from="996144772#1" to="521216687#1"/>
    </person>
    <person id="15" depart="14.60" type="DEFAULT_PEDTYPE">
        <walk from="-183185682#4" to="-23195499#1"/>
    </person>
    <person id="16" depart="17.20" type="DEFAULT_PEDTYPE">
        <walk from="190606082" to="121474036#1"/>
    </person>
    <person id="17" depart="17.80" type="DEFAULT_PEDTYPE">
        <walk from="192402866#1" to="29033732"/>
    </person>
    <person id="18" depart="19.20" type="DEFAULT_PEDTYPE">
        <walk from="-30130289#2" to="-191979123"/>
    </person>
    <person id="19" depart="21.80" type="DEFAULT_PEDTYPE">
        <walk from="435838878" to="26777962"/>
    </person>
    <person id="20" depart="25.40" type="DEFAULT_PEDTYPE">
        <walk from="-629468837#4" to="190611233#2"/>
    </person>
    <person id="21" depart="26.00" type="DEFAULT_PEDTYPE">
        <walk from="-184119535#0" to="28681367#3"/>
    </person>
    <person id="22" depart="26.60" type="DEFAULT_PEDTYPE">
        <walk from="28709107#1" to="645957900"/>
    </person>
    <person id="23" depart="27.60" type="DEFAULT_PEDTYPE">
        <walk from="192611784#2" to="435202308#7"/>
    </person>
    <person id="24" depart="27.80" type="DEFAULT_PEDTYPE">
        <walk from="28718918#1" to="484338316#3"/>
    </person>
    <person id="25" depart="29.20" type="DEFAULT_PEDTYPE">
        <walk from="-28729524" to="-184119535#1"/>
    </person>
    <person id="26" depart="33.80" type="DEFAULT_PEDTYPE">
        <walk from="998769532" to="26777810#2"/>
    </person>
    <person id="27" depart="35.40" type="DEFAULT_PEDTYPE">
        <walk from="29033735" to="184765384#0"/>
    </person>
    <person id="28" depart="35.60" type="DEFAULT_PEDTYPE">
        <walk from="184765384#0" to="23195503"/>
    </person>
    <person id="29" depart="37.00" type="DEFAULT_PEDTYPE">
        <walk from="23680391#2" to="522833741#1"/>
    </person>
    <person id="30" depart="38.20" type="DEFAULT_PEDTYPE">
        <walk from="639056049" to="191979127#3"/>
    </person>
    <person id="31" depart="38.60" type="DEFAULT_PEDTYPE">
        <walk from="184119535#1" to="-30130289#2"/>
    </person>
    <person id="32" depart="41.40" type="DEFAULT_PEDTYPE">
        <walk from="23195338" to="521216687#1"/>
    </person>
    <person id="33" depart="42.00" type="DEFAULT_PEDTYPE">
        <walk from="191979126#1" to="435202316#1"/>
    </person>
    <person id="34" depart="43.60" type="DEFAULT_PEDTYPE">
        <walk from="28729034#1" to="33787456#2"/>
    </person>
    <person id="35" depart="44.00" type="DEFAULT_PEDTYPE">
        <walk from="27119326#4" to="27119332"/>
    </person>
    <person id="36" depart="44.60" type="DEFAULT_PEDTYPE">
        <walk from="30130289#0" to="30130289#0"/>
    </person>
    <person id="37" depart="47.20" type="DEFAULT_PEDTYPE">
        <walk from="29033731" to="23683467#2"/>
    </person>
    <person id="38" depart="49.20" type="DEFAULT_PEDTYPE">
        <walk from="522431205" to="-32062050#0"/>
    </person>
    <person id="39" depart="50.40" type="DEFAULT_PEDTYPE">
        <walk from="-522431210#1" to="545476129#4"/>
    </person>
    <person id="40" depart="53.40" type="DEFAULT_PEDTYPE">
        <walk from="-32062050#0" to="116985957#0"/>
    </person>
    <person id="41" depart="55.60" type="DEFAULT_PEDTYPE">
        <walk from="639056049" to="26605442#1"/>
    </person>
    <person id="42" depart="56.00" type="DEFAULT_PEDTYPE">
        <walk from="429515616#10" to="192402868#0"/>
    </person>
    <person id="43" depart="56.00" type="DEFAULT_PEDTYPE">
        <walk from="184119535#5" to="647483354"/>
    </person>
    <person id="44" depart="57.40" type="DEFAULT_PEDTYPE">
        <walk from="26605322#1" to="998769529"/>
    </person>
    <person id="45" depart="58.80" type="DEFAULT_PEDTYPE">
        <walk from="539483276" to="333902271#2"/>
    </person>
    <person id="46" depart="59.20" type="DEFAULT_PEDTYPE">
        <walk from="534225102" to="-184119535#5"/>
    </person>
    <person id="47" depart="62.20" type="DEFAULT_PEDTYPE">
        <walk from="28702636#2" to="-29034118#0"/>
    </person>
    <person id="48" depart="63.80" type="DEFAULT_PEDTYPE">
        <walk from="545660375#0" to="28729635"/>
    </person>
    <person id="49" depart="64.60" type="DEFAULT_PEDTYPE">
        <walk from="-455159010#3" to="190606077#4"/>
    </person>
    <person id="50" depart="65.40" type="DEFAULT_PEDTYPE">
        <walk from="-75531374" to="-28710755#0"/>
    </person>
    <person id="51" depart="65.60" type="DEFAULT_PEDTYPE">
        <walk from="486213133" to="-30130289#2"/>
    </person>
    <person id="52" depart="66.60" type="DEFAULT_PEDTYPE">
        <walk from="116985957#3" to="-27119334#4"/>
    </person>
    <person id="53" depart="67.80" type="DEFAULT_PEDTYPE">
        <walk from="-435202314#1" to="28729354#3"/>
    </person>
    <person id="54" depart="68.60" type="DEFAULT_PEDTYPE">
        <walk from="-28719125#0" to="-30130289#2"/>
    </person>
    <person id="55" depart="71.00" type="DEFAULT_PEDTYPE">
        <walk from="-451455823#4" to="484372692"/>
    </person>
    <person id="56" depart="71.00" type="DEFAULT_PEDTYPE">
        <walk from="23195499#2" to="28999595#1"/>
    </person>
    <person id="57" depart="71.40" type="DEFAULT_PEDTYPE">
        <walk from="-30130289#2" to="26605322#0"/>
    </person>
    <person id="58" depart="71.60" type="DEFAULT_PEDTYPE">
        <walk from="-484338320#1" to="190611233#0"/>
    </person>
    <person id="59" depart="71.60" type="DEFAULT_PEDTYPE">
        <walk from="-191987466" to="27119334#0"/>
    </person>
    <person id="60" depart="72.40" type="DEFAULT_PEDTYPE">
        <walk from="28702636#2" to="461160629"/>
    </person>
    <person id="61" depart="75.60" type="DEFAULT_PEDTYPE">
        <walk from="28710790#1" to="28999595#1"/>
    </person>
    <person id="62" depart="78.60" type="DEFAULT_PEDTYPE">
        <walk from="191555573#1" to="-184765384#0"/>
    </person>
    <person id="63" depart="79.40" type="DEFAULT_PEDTYPE">
        <walk from="-522833720#0" to="28142432#1"/>
    </person>
    <person id="64" depart="81.60" type="DEFAULT_PEDTYPE">
        <walk from="-629468837#4" to="23195804#0"/>
    </person>
    <person id="65" depart="82.40" type="DEFAULT_PEDTYPE">
        <walk from="1095603364#1" to="545660375#0"/>
    </person>
    <person id="66" depart="86.60" type="DEFAULT_PEDTYPE">
        <walk from="522833720#0" to="649942985#1"/>
    </person>
    <person id="67" depart="86.80" type="DEFAULT_PEDTYPE">
        <walk from="435202308#10" to="545476129#5"/>
    </person>
    <person id="68" depart="87.20" type="DEFAULT_PEDTYPE">
        <walk from="191959704#1" to="116985957#2"/>
    </person>
    <person id="69" depart="90.20" type="DEFAULT_PEDTYPE">
        <walk from="-184119535#3" to="620362112#2"/>
    </person>
    <person id="70" depart="90.40" type="DEFAULT_PEDTYPE">
        <walk from="121474036#1" to="28710621#3"/>
    </person>
    <person id="71" depart="90.80" type="DEFAULT_PEDTYPE">
        <walk from="539483276" to="191555584"/>
    </person>
    <person id="72" depart="91.20" type="DEFAULT_PEDTYPE">
        <walk from="23195800" to="-28718922#1"/>
    </person>
    <person id="73" depart="92.20" type="DEFAULT_PEDTYPE">
        <walk from="522833750#1" to="116632638#0"/>
    </person>
    <person id="74" depart="92.60" type="DEFAULT_PEDTYPE">
        <walk from="28998450#0" to="-27119334#1"/>
    </person>
    <person id="75" depart="93.00" type="DEFAULT_PEDTYPE">
        <walk from="192402866#1" to="484338325#2"/>
    </person>
    <person id="76" depart="94.60" type="DEFAULT_PEDTYPE">
        <walk from="383160083" to="28710621#2"/>
    </person>
    <person id="77" depart="95.00" type="DEFAULT_PEDTYPE">
        <walk from="109900925" to="27148095"/>
    </person>
    <person id="78" depart="96.40" type="DEFAULT_PEDTYPE">
        <walk from="28709109#0" to="429515616#16"/>
    </person>
    <person id="79" depart="97.60" type="DEFAULT_PEDTYPE">
        <walk from="995252086#1" to="27148168"/>
    </person>
    <person id="80" depart="98.80" type="DEFAULT_PEDTYPE">
        <walk from="23195754#4" to="429515616#15"/>
    </person>
    <person id="81" depart="100.00" type="DEFAULT_PEDTYPE">
        <walk from="455159009#1" to="-184427447#3"/>
    </person>
    <person id="82" depart="102.00" type="DEFAULT_PEDTYPE">
        <walk from="993758442" to="23195793"/>
    </person>
    <person id="83" depart="102.40" type="DEFAULT_PEDTYPE">
        <walk from="998885380" to="23195792#0"/>
    </person>
    <person id="84" depart="102.80" type="DEFAULT_PEDTYPE">
        <walk from="23195503" to="435202308#0"/>
    </person>
    <person id="85" depart="102.80" type="DEFAULT_PEDTYPE">
        <walk from="23196326#0" to="993930098"/>
    </person>
    <person id="86" depart="104.00" type="DEFAULT_PEDTYPE">
        <walk from="539483276" to="28681367#3"/>
    </person>
    <person id="87" depart="104.20" type="DEFAULT_PEDTYPE">
        <walk from="183185682#4" to="-192402888#1"/>
    </person>
    <person id="88" depart="105.40" type="DEFAULT_PEDTYPE">
        <walk from="-23195495" to="435838968#8"/>
    </person>
    <person id="89" depart="106.40" type="DEFAULT_PEDTYPE">
        <walk from="-116632638#0" to="190611233#1"/>
    </person>
    <person id="90" depart="107.00" type="DEFAULT_PEDTYPE">
        <walk from="28710412#2" to="191979123"/>
    </person>
    <person id="91" depart="107.20" type="DEFAULT_PEDTYPE">
        <walk from="23195744#0" to="-28121204#0"/>
    </person>
    <person id="92" depart="107.60" type="DEFAULT_PEDTYPE">
        <walk from="-184119535#0" to="-167113237"/>
    </person>
    <person id="93" depart="109.20" type="DEFAULT_PEDTYPE">
        <walk from="192402888#1" to="28710755#0"/>
    </person>
    <person id="94" depart="110.60" type="DEFAULT_PEDTYPE">
        <walk from="23196319" to="23195806"/>
    </person>
    <person id="95" depart="114.60" type="DEFAULT_PEDTYPE">
        <walk from="647467697" to="1001467661"/>
    </person>
    <person id="96" depart="116.40" type="DEFAULT_PEDTYPE">
        <walk from="400653413" to="109900969#1"/>
    </person>
    <person id="97" depart="117.00" type="DEFAULT_PEDTYPE">
        <walk from="-620348242#2" to="-23195499#1"/>
    </person>
    <person id="98" depart="119.60" type="DEFAULT_PEDTYPE">
        <walk from="184899649#1" to="191555584"/>
    </person>
    <person id="99" depart="121.20" type="DEFAULT_PEDTYPE">
        <walk from="1094949083" to="191555584"/>
    </person>
    <person id="100" depart="121.80" type="DEFAULT_PEDTYPE">
        <walk from="26777809#0" to="455159000#6"/>
    </person>
    <person id="101" depart="128.00" type="DEFAULT_PEDTYPE">
        <walk from="184427434#0" to="23195794"/>
    </person>
    <person id="102" depart="128.80" type="DEFAULT_PEDTYPE">
        <walk from="661212190" to="28702165#1"/>
    </person>
    <person id="103" depart="129.20" type="DEFAULT_PEDTYPE">
        <walk from="-455159010#3" to="191555584"/>
    </person>
    <person id="104" depart="132.80" type="DEFAULT_PEDTYPE">
        <walk from="26777809#0" to="28681367#2"/>
    </person>
    <person id="105" depart="134.80" type="DEFAULT_PEDTYPE">
        <walk from="23195792#0" to="-184427426#1"/>
    </person>
    <person id="106" depart="138.80" type="DEFAULT_PEDTYPE">
        <walk from="184119535#1" to="28718918#1"/>
    </person>
    <person id="107" depart="140.40" type="DEFAULT_PEDTYPE">
        <walk from="26605447" to="27148087#0"/>
    </person>
    <person id="108" depart="141.20" type="DEFAULT_PEDTYPE">
        <walk from="1095603365#0" to="-30130289#2"/>
    </person>
    <person id="109" depart="141.40" type="DEFAULT_PEDTYPE">
        <walk from="-629468837#5" to="23195503"/>
    </person>
    <person id="110" depart="142.40" type="DEFAULT_PEDTYPE">
        <walk from="521216724#0" to="23195340#0"/>
    </person>
    <person id="111" depart="142.80" type="DEFAULT_PEDTYPE">
        <walk from="-461162695" to="455159000#6"/>
    </person>
    <person id="112" depart="143.40" type="DEFAULT_PEDTYPE">
        <walk from="1095603365#1" to="-28140035#2"/>
    </person>
    <person id="113" depart="144.20" type="DEFAULT_PEDTYPE">
        <walk from="28681367#0" to="-184119535#1"/>
    </person>
    <person id="114" depart="145.00" type="DEFAULT_PEDTYPE">
        <walk from="23195340#0" to="-23195495"/>
    </person>
    <person id="115" depart="145.20" type="DEFAULT_PEDTYPE">
        <walk from="-184119535#0" to="-629468837#3"/>
    </person>
    <person id="116" depart="145.60" type="DEFAULT_PEDTYPE">
        <walk from="27119326#10" to="28708935#0"/>
    </person>
    <person id="117" depart="148.40" type="DEFAULT_PEDTYPE">
        <walk from="534225102" to="191959704#1"/>
    </person>
    <person id="118" depart="149.40" type="DEFAULT_PEDTYPE">
        <walk from="28708935#0" to="191555579#1"/>
    </person>
    <person id="119" depart="151.40" type="DEFAULT_PEDTYPE">
        <walk from="-23683467#3" to="-185271780#1"/>
    </person>
    <person id="120" depart="155.00" type="DEFAULT_PEDTYPE">
        <walk from="192611784#2" to="455159003#0"/>
    </person>
    <person id="121" depart="161.80" type="DEFAULT_PEDTYPE">
        <walk from="23196324" to="-429515616#16"/>
    </person>
    <person id="122" depart="162.80" type="DEFAULT_PEDTYPE">
        <walk from="28999595#1" to="184119535#0"/>
    </person>
    <person id="123" depart="164.00" type="DEFAULT_PEDTYPE">
        <walk from="-429515616#16" to="521216731"/>
    </person>
    <person id="124" depart="164.00" type="DEFAULT_PEDTYPE">
        <walk from="26777960#1" to="647467697"/>
    </person>
    <person id="125" depart="164.60" type="DEFAULT_PEDTYPE">
        <walk from="23195792#0" to="28998380#2"/>
    </person>
    <person id="126" depart="165.00" type="DEFAULT_PEDTYPE">
        <walk from="28709107#1" to="23195338"/>
    </person>
    <person id="127" depart="172.60" type="DEFAULT_PEDTYPE">
        <walk from="23195754#4" to="28710790#1"/>
    </person>
    <person id="128" depart="172.60" type="DEFAULT_PEDTYPE">
        <walk from="484338325#4" to="190611233#2"/>
    </person>
    <person id="129" depart="175.60" type="DEFAULT_PEDTYPE">
        <walk from="-482712298#3" to="-116632638#4"/>
    </person>
    <person id="130" depart="176.40" type="DEFAULT_PEDTYPE">
        <walk from="-27148088#3" to="28710410#2"/>
    </person>
    <person id="131" depart="179.20" type="DEFAULT_PEDTYPE">
        <walk from="23195793" to="28142431"/>
    </person>
    <person id="132" depart="179.80" type="DEFAULT_PEDTYPE">
        <walk from="184427447#3" to="-191742055#5"/>
    </person>
    <person id="133" depart="181.40" type="DEFAULT_PEDTYPE">
        <walk from="192464436" to="193099645#4"/>
    </person>
    <person id="134" depart="183.80" type="DEFAULT_PEDTYPE">
        <walk from="-429515616#15" to="521216687#1"/>
    </person>
    <person id="135" depart="184.80" type="DEFAULT_PEDTYPE">
        <walk from="29033732" to="435202315#1"/>
    </person>
    <person id="136" depart="185.60" type="DEFAULT_PEDTYPE">
        <walk from="333903331#0" to="184427426#4"/>
    </person>
    <person id="137" depart="190.60" type="DEFAULT_PEDTYPE">
        <walk from="-27148087#1" to="647483354"/>
    </person>
    <person id="138" depart="190.80" type="DEFAULT_PEDTYPE">
        <walk from="-333903331#0" to="521216741#1"/>
    </person>
    <person id="139" depart="192.80" type="DEFAULT_PEDTYPE">
        <walk from="28998450#0" to="429515616#15"/>
    </person>
    <person id="140" depart="198.60" type="DEFAULT_PEDTYPE">
        <walk from="183185682#1" to="191871225#1"/>
    </person>
    <person id="141" depart="200.40" type="DEFAULT_PEDTYPE">
        <walk from="-629468837#4" to="429515616#16"/>
    </person>
    <person id="142" depart="203.40" type="DEFAULT_PEDTYPE">
        <walk from="192611779#3" to="435838968#3"/>
    </person>
    <person id="143" depart="204.20" type="DEFAULT_PEDTYPE">
        <walk from="429515616#15" to="995252086#0"/>
    </person>
    <person id="144" depart="204.40" type="DEFAULT_PEDTYPE">
        <walk from="429515616#15" to="451948237#1"/>
    </person>
    <person id="145" depart="205.60" type="DEFAULT_PEDTYPE">
        <walk from="998798218" to="484338326#0"/>
    </person>
    <person id="146" depart="207.00" type="DEFAULT_PEDTYPE">
        <walk from="451455823#4" to="23195340#0"/>
    </person>
    <person id="147" depart="208.40" type="DEFAULT_PEDTYPE">
        <walk from="23195793" to="-190606069#1"/>
    </person>
    <person id="148" depart="208.80" type="DEFAULT_PEDTYPE">
        <walk from="28729036" to="23195330#1"/>
    </person>
    <person id="149" depart="209.00" type="DEFAULT_PEDTYPE">
        <walk from="28142432#0" to="451455823#2"/>
    </person>
    <person id="150" depart="209.20" type="DEFAULT_PEDTYPE">
        <walk from="521216687#1" to="184427447#6"/>
    </person>
    <person id="151" depart="210.20" type="DEFAULT_PEDTYPE">
        <walk from="27119328#0" to="1094949083"/>
    </person>
    <person id="152" depart="210.60" type="DEFAULT_PEDTYPE">
        <walk from="27119334#2" to="28710939#1"/>
    </person>
    <person id="153" depart="215.20" type="DEFAULT_PEDTYPE">
        <walk from="1095603364#1" to="-435838968#7"/>
    </person>
    <person id="154" depart="219.00" type="DEFAULT_PEDTYPE">
        <walk from="191555584" to="23195806"/>
    </person>
    <person id="155" depart="220.00" type="DEFAULT_PEDTYPE">
        <walk from="-184765384#0" to="333902271#2"/>
    </person>
    <person id="156" depart="223.00" type="DEFAULT_PEDTYPE">
        <walk from="-484338312#1" to="461160629"/>
    </person>
    <person id="157" depart="225.80" type="DEFAULT_PEDTYPE">
        <walk from="23195333#1" to="-183185682#4"/>
    </person>
    <person id="158" depart="226.80" type="DEFAULT_PEDTYPE">
        <walk from="545722933#1" to="33787456#3"/>
    </person>
    <person id="159" depart="228.40" type="DEFAULT_PEDTYPE">
        <walk from="429515616#15" to="522431207"/>
    </person>
    <person id="160" depart="228.40" type="DEFAULT_PEDTYPE">
        <walk from="522431207" to="-32062050#0"/>
    </person>
    <person id="161" depart="229.60" type="DEFAULT_PEDTYPE">
        <walk from="490516821#1" to="620431735#2"/>
    </person>
    <person id="162" depart="229.80" type="DEFAULT_PEDTYPE">
        <walk from="455159003#0" to="23195330#1"/>
    </person>
    <person id="163" depart="232.00" type="DEFAULT_PEDTYPE">
        <walk from="-184119535#1" to="993984189"/>
    </person>
    <person id="164" depart="237.20" type="DEFAULT_PEDTYPE">
        <walk from="333903313#1" to="1000553428"/>
    </person>
    <person id="165" depart="238.00" type="DEFAULT_PEDTYPE">
        <walk from="-28121204#0" to="996364918"/>
    </person>
    <person id="166" depart="238.00" type="DEFAULT_PEDTYPE">
        <walk from="-333903317#0" to="629468828#2"/>
    </person>
    <person id="167" depart="239.20" type="DEFAULT_PEDTYPE">
        <walk from="545476129#4" to="429515616#15"/>
    </person>
    <person id="168" depart="239.80" type="DEFAULT_PEDTYPE">
        <walk from="619524656" to="-192402888#1"/>
    </person>
    <person id="169" depart="240.80" type="DEFAULT_PEDTYPE">
        <walk from="23195339" to="-184765384#0"/>
    </person>
    <person id="170" depart="240.80" type="DEFAULT_PEDTYPE">
        <walk from="117561950" to="539419144#1"/>
    </person>
    <person id="171" depart="242.60" type="DEFAULT_PEDTYPE">
        <walk from="28702636#2" to="-192464422"/>
    </person>
    <person id="172" depart="244.20" type="DEFAULT_PEDTYPE">
        <walk from="333903331#0" to="28998379"/>
    </person>
    <person id="173" depart="247.00" type="DEFAULT_PEDTYPE">
        <walk from="-192402888#0" to="388696209#1"/>
    </person>
    <person id="174" depart="248.60" type="DEFAULT_PEDTYPE">
        <walk from="-620348242#1" to="484338326#0"/>
    </person>
    <person id="175" depart="248.80" type="DEFAULT_PEDTYPE">
        <walk from="-28140035#2" to="28121204#1"/>
    </person>
    <person id="176" depart="248.80" type="DEFAULT_PEDTYPE">
        <walk from="109900969#2" to="28710621#5"/>
    </person>
    <person id="177" depart="249.80" type="DEFAULT_PEDTYPE">
        <walk from="545476129#5" to="545660375#0"/>
    </person>
    <person id="178" depart="250.20" type="DEFAULT_PEDTYPE">
        <walk from="522431207" to="-28121204#1"/>
    </person>
    <person id="179" depart="251.40" type="DEFAULT_PEDTYPE">
        <walk from="28681367#0" to="-429515616#16"/>
    </person>
    <person id="180" depart="254.00" type="DEFAULT_PEDTYPE">
        <walk from="27148088#0" to="23195500#3"/>
    </person>
    <person id="181" depart="254.60" type="DEFAULT_PEDTYPE">
        <walk from="544210702#0" to="-484338309"/>
    </person>
    <person id="182" depart="255.40" type="DEFAULT_PEDTYPE">
        <walk from="-435838968#3" to="620362111#0"/>
    </person>
    <person id="183" depart="255.40" type="DEFAULT_PEDTYPE">
        <walk from="-32062050#0" to="28142431"/>
    </person>
    <person id="184" depart="257.80" type="DEFAULT_PEDTYPE">
        <walk from="-23683467#1" to="192611779#3"/>
    </person>
    <person id="185" depart="259.00" type="DEFAULT_PEDTYPE">
        <walk from="-522833738" to="27113726"/>
    </person>
    <person id="186" depart="266.60" type="DEFAULT_PEDTYPE">
        <walk from="192402888#0" to="390224984#1"/>
    </person>
    <person id="187" depart="267.00" type="DEFAULT_PEDTYPE">
        <walk from="-29034118#0" to="522833732#1"/>
    </person>
    <person id="188" depart="268.80" type="DEFAULT_PEDTYPE">
        <walk from="28729302" to="27148084#0"/>
    </person>
    <person id="189" depart="269.60" type="DEFAULT_PEDTYPE">
        <walk from="680395824#2" to="-191987465#0"/>
    </person>
    <person id="190" depart="271.40" type="DEFAULT_PEDTYPE">
        <walk from="23195801" to="192611779#3"/>
    </person>
    <person id="191" depart="272.60" type="DEFAULT_PEDTYPE">
        <walk from="998769529" to="27119334#2"/>
    </person>
    <person id="192" depart="273.20" type="DEFAULT_PEDTYPE">
        <walk from="28708934#0" to="28121204#1"/>
    </person>
    <person id="193" depart="276.40" type="DEFAULT_PEDTYPE">
        <walk from="23195752#2" to="191785962"/>
    </person>
    <person id="194" depart="276.60" type="DEFAULT_PEDTYPE">
        <walk from="23195329#1" to="484372677#0"/>
    </person>
    <person id="195" depart="278.00" type="DEFAULT_PEDTYPE">
        <walk from="-429515616#15" to="-455159009#0"/>
    </person>
    <person id="196" depart="278.00" type="DEFAULT_PEDTYPE">
        <walk from="-435838968#8" to="484338325#3"/>
    </person>
    <person id="197" depart="278.20" type="DEFAULT_PEDTYPE">
        <walk from="655717652" to="680627394"/>
    </person>
    <person id="198" depart="282.40" type="DEFAULT_PEDTYPE">
        <walk from="-435202308#2" to="-23196319"/>
    </person>
    <person id="199" depart="284.60" type="DEFAULT_PEDTYPE">
        <walk from="333979022" to="562577376"/>
    </person>
    <person id="200" depart="286.60" type="DEFAULT_PEDTYPE">
        <walk from="183185682#4" to="23195501#1"/>
    </person>
    <person id="201" depart="288.00" type="DEFAULT_PEDTYPE">
        <walk from="995195084" to="-28121204#0"/>
    </person>
    <person id="202" depart="290.20" type="DEFAULT_PEDTYPE">
        <walk from="23195741#0" to="28710934"/>
    </person>
    <person id="203" depart="291.40" type="DEFAULT_PEDTYPE">
        <walk from="184119535#3" to="1094949085#0"/>
    </person>
    <person id="204" depart="297.00" type="DEFAULT_PEDTYPE">
        <walk from="23195793" to="545476127#1"/>
    </person>
    <person id="205" depart="298.60" type="DEFAULT_PEDTYPE">
        <walk from="388698688#1" to="27119326#3"/>
    </person>
    <person id="206" depart="299.60" type="DEFAULT_PEDTYPE">
        <walk from="474164620#0" to="28710934"/>
    </person>
    <person id="207" depart="300.20" type="DEFAULT_PEDTYPE">
        <walk from="383160083" to="-429515616#15"/>
    </person>
    <person id="208" depart="301.00" type="DEFAULT_PEDTYPE">
        <walk from="28142431" to="28702637#2"/>
    </person>
    <person id="209" depart="302.40" type="DEFAULT_PEDTYPE">
        <walk from="998885380" to="655693841"/>
    </person>
    <person id="210" depart="303.20" type="DEFAULT_PEDTYPE">
        <walk from="-435838968#8" to="435838968#8"/>
    </person>
    <person id="211" depart="305.80" type="DEFAULT_PEDTYPE">
        <walk from="429515615#4" to="28729354#3"/>
    </person>
    <person id="212" depart="307.40" type="DEFAULT_PEDTYPE">
        <walk from="522431207" to="390224984#1"/>
    </person>
    <person id="213" depart="308.80" type="DEFAULT_PEDTYPE">
        <walk from="-429515616#16" to="-184119535#4"/>
    </person>
    <person id="214" depart="310.40" type="DEFAULT_PEDTYPE">
        <walk from="28710934" to="28718918#1"/>
    </person>
    <person id="215" depart="312.80" type="DEFAULT_PEDTYPE">
        <walk from="-32839218#0" to="-193099644"/>
    </person>
    <person id="216" depart="314.40" type="DEFAULT_PEDTYPE">
        <walk from="-30130289#2" to="27119326#3"/>
    </person>
    <person id="217" depart="314.60" type="DEFAULT_PEDTYPE">
        <walk from="333903313#1" to="998769538#1"/>
    </person>
    <person id="218" depart="315.60" type="DEFAULT_PEDTYPE">
        <walk from="23195501#1" to="184427447#6"/>
    </person>
    <person id="219" depart="316.60" type="DEFAULT_PEDTYPE">
        <walk from="192611779#3" to="435202308#2"/>
    </person>
    <person id="220" depart="317.20" type="DEFAULT_PEDTYPE">
        <walk from="-521216689" to="-429515616#16"/>
    </person>
    <person id="221" depart="320.00" type="DEFAULT_PEDTYPE">
        <walk from="-455159009#0" to="28998662#1"/>
    </person>
    <person id="222" depart="320.60" type="DEFAULT_PEDTYPE">
        <walk from="23683441#0" to="23582577#1"/>
    </person>
    <person id="223" depart="323.80" type="DEFAULT_PEDTYPE">
        <walk from="-429515616#15" to="184427426#4"/>
    </person>
    <person id="224" depart="325.80" type="DEFAULT_PEDTYPE">
        <walk from="23195331" to="28709110#1"/>
    </person>
    <person id="225" depart="326.20" type="DEFAULT_PEDTYPE">
        <walk from="-484338311#1" to="333902271#2"/>
    </person>
    <person id="226" depart="326.80" type="DEFAULT_PEDTYPE">
        <walk from="26524152#0" to="1095603372#5"/>
    </person>
    <person id="227" depart="327.00" type="DEFAULT_PEDTYPE">
        <walk from="655717644#1" to="23195500#4"/>
    </person>
    <person id="228" depart="327.20" type="DEFAULT_PEDTYPE">
        <walk from="26777962" to="23195501#1"/>
    </person>
    <person id="229" depart="327.60" type="DEFAULT_PEDTYPE">
        <walk from="-388081161" to="996022769#1"/>
    </person>
    <person id="230" depart="328.60" type="DEFAULT_PEDTYPE">
        <walk from="-333903313#1" to="28142431"/>
    </person>
    <person id="231" depart="330.40" type="DEFAULT_PEDTYPE">
        <walk from="183185682#4" to="-192464422"/>
    </person>
    <person id="232" depart="332.60" type="DEFAULT_PEDTYPE">
        <walk from="435202308#13" to="655717643"/>
    </person>
    <person id="233" depart="334.60" type="DEFAULT_PEDTYPE">
        <walk from="191742055#2" to="482675917#0"/>
    </person>