<?xml version="1.0" encoding="UTF-8"?>

<!-- generated on 2023-04-03 20:36:10.161055 by randomTrips.py v1_15_0+0682-ef022823415
<configuration>
    <end value="10000"/>
    <length value="True"/>
    <net-file value="/home/toore/Tirocinio_SUMO/Scenario/Modena/osm.net.xml"/>
    <pedestrians value="True"/>
    <period value="1.4"/>
    <random value="True"/>
    <route-file value="peds.rou.xml"/>
    <seed value="10000"/>
    <trip-attributes value="type=&quot;DEFAULT_PEDTYPE&quot;"/>
</configuration>
-->

<routes xmlns:xsi="http://www.w3.org/2001/XMLSchema-instance" xsi:noNamespaceSchemaLocation="http://sumo.dlr.de/xsd/routes_file.xsd">
    <person id="0" depart="0.00" type="DEFAULT_PEDTYPE">
        <walk from="23195328#3" to="23195794"/>
    </person>
    <person id="1" depart="1.40" type="DEFAULT_PEDTYPE">
        <walk from="647789894" to="322548792#0"/>
    </person>
    <person id="2" depart="2.80" type="DEFAULT_PEDTYPE">
        <walk from="522833720#0" to="191979122"/>
    </person>
    <person id="3" depart="4.20" type="DEFAULT_PEDTYPE">
        <walk from="23195752#2" to="28710410#2"/>
    </person>
    <person id="4" depart="5.60" type="DEFAULT_PEDTYPE">
        <walk from="23196319" to="28710621#4"/>
    </person>
    <person id="5" depart="7.00" type="DEFAULT_PEDTYPE">
        <walk from="23196319" to="995252090"/>
    </person>
    <person id="6" depart="8.40" type="DEFAULT_PEDTYPE">
        <walk from="192464446" to="28709110#2"/>
    </person>
    <person id="7" depart="9.80" type="DEFAULT_PEDTYPE">
        <walk from="322548792#10" to="23195749#0"/>
    </person>
    <person id="8" depart="11.20" type="DEFAULT_PEDTYPE">
        <walk from="474164620#0" to="997944688#0"/>
    </person>
    <person id="9" depart="12.60" type="DEFAULT_PEDTYPE">
        <walk from="996144772#1" to="-23196319"/>
    </person>
    <person id="10" depart="14.00" type="DEFAULT_PEDTYPE">
        <walk from="23195499#2" to="-397927055#0"/>
    </person>
    <person id="11" depart="15.40" type="DEFAULT_PEDTYPE">
        <walk from="1000553428" to="647789892"/>
    </person>
    <person id="12" depart="16.80" type="DEFAULT_PEDTYPE">
        <walk from="545660374#1" to="28710621#1"/>
    </person>
    <person id="13" depart="18.20" type="DEFAULT_PEDTYPE">
        <walk from="-191987466" to="-28998663"/>
    </person>
    <person id="14" depart="19.60" type="DEFAULT_PEDTYPE">
        <walk from="28719191#5" to="23195744"/>
    </person>
    <person id="15" depart="21.00" type="DEFAULT_PEDTYPE">
        <walk from="23195798" to="993884076#1"/>
    </person>
    <person id="16" depart="22.40" type="DEFAULT_PEDTYPE">
        <walk from="522833752#1" to="28719191#5"/>
    </person>
    <person id="17" depart="23.80" type="DEFAULT_PEDTYPE">
        <walk from="996022767" to="23195329#1"/>
    </person>
    <person id="18" depart="25.20" type="DEFAULT_PEDTYPE">
        <walk from="995252090" to="-28998663"/>
    </person>
    <person id="19" depart="26.60" type="DEFAULT_PEDTYPE">
        <walk from="28708934#0" to="998769536#1"/>
    </person>
    <person id="20" depart="28.00" type="DEFAULT_PEDTYPE">
        <walk from="545660374#1" to="184427426#4"/>
    </person>
    <person id="21" depart="29.40" type="DEFAULT_PEDTYPE">
        <walk from="998769536#1" to="-322548792#10"/>
    </person>
    <person id="22" depart="30.80" type="DEFAULT_PEDTYPE">
        <walk from="522833741#1" to="190606088#0"/>
    </person>
    <person id="23" depart="32.20" type="DEFAULT_PEDTYPE">
        <walk from="-28719125#0" to="545660374#1"/>
    </person>
    <person id="24" depart="33.60" type="DEFAULT_PEDTYPE">
        <walk from="-23195499#2" to="28999595#1"/>
    </person>
    <person id="25" depart="35.00" type="DEFAULT_PEDTYPE">
        <walk from="28998778#2" to="29033735"/>
    </person>
    <person id="26" depart="36.40" type="DEFAULT_PEDTYPE">
        <walk from="-522431210#1" to="995252090"/>
    </person>
    <person id="27" depart="37.80" type="DEFAULT_PEDTYPE">
        <walk from="-435838563" to="29033731"/>
    </person>
    <person id="28" depart="39.20" type="DEFAULT_PEDTYPE">
        <walk from="32062050#1" to="322548792#4"/>
    </person>
    <person id="29" depart="40.60" type="DEFAULT_PEDTYPE">
        <walk from="-28710755#0" to="-23195496"/>
    </person>
    <person id="30" depart="42.00" type="DEFAULT_PEDTYPE">
        <walk from="185271769" to="28729034#1"/>
    </person>
    <person id="31" depart="43.40" type="DEFAULT_PEDTYPE">
        <walk from="544210703#0" to="-397927055#0"/>
    </person>
    <person id="32" depart="44.80" type="DEFAULT_PEDTYPE">
        <walk from="28999595#1" to="28719191#4"/>
    </person>
    <person id="33" depart="46.20" type="DEFAULT_PEDTYPE">
        <walk from="193099645#0" to="-1000553429"/>
    </person>
    <person id="34" depart="47.60" type="DEFAULT_PEDTYPE">
        <walk from="28729034#1" to="23195336#1"/>
    </person>
    <person id="35" depart="49.00" type="DEFAULT_PEDTYPE">
        <walk from="458676577#2" to="23195736"/>
    </person>
    <person id="36" depart="50.40" type="DEFAULT_PEDTYPE">
        <walk from="28710410#2" to="192464435"/>
    </person>
    <person id="37" depart="51.80" type="DEFAULT_PEDTYPE">
        <walk from="193099645#2" to="998769531"/>
    </person>
    <person id="38" depart="53.20" type="DEFAULT_PEDTYPE">
        <walk from="28710621#1" to="1094949085#0"/>
    </person>
    <person id="39" depart="54.60" type="DEFAULT_PEDTYPE">
        <walk from="-23196319" to="28999218"/>
    </person>
    <person id="40" depart="56.00" type="DEFAULT_PEDTYPE">
        <walk from="28709110#0" to="23195500#2"/>
    </person>
    <person id="41" depart="57.40" type="DEFAULT_PEDTYPE">
        <walk from="-23195499#2" to="461160629"/>
    </person>
    <person id="42" depart="58.80" type="DEFAULT_PEDTYPE">
        <walk from="998769538#1" to="995252090"/>
    </person>
    <person id="43" depart="60.20" type="DEFAULT_PEDTYPE">
        <walk from="117561950" to="-998769537"/>
    </person>
    <person id="44" depart="61.60" type="DEFAULT_PEDTYPE">
        <walk from="184427426#3" to="-28998663"/>
    </person>
    <person id="45" depart="63.00" type="DEFAULT_PEDTYPE">
        <walk from="23195501#1" to="191871225#1"/>
    </person>
    <person id="46" depart="64.40" type="DEFAULT_PEDTYPE">
        <walk from="28999595#1" to="23195798"/>
    </person>
    <person id="47" depart="65.80" type="DEFAULT_PEDTYPE">
        <walk from="1094949084" to="28718918#1"/>
    </person>
    <person id="48" depart="67.20" type="DEFAULT_PEDTYPE">
        <walk from="28999595#1" to="322548792#4"/>
    </person>
    <person id="49" depart="68.60" type="DEFAULT_PEDTYPE">
        <walk from="193099645#0" to="184427434#0"/>
    </person>
    <person id="50" depart="70.00" type="DEFAULT_PEDTYPE">
        <walk from="1095603371#1" to="23195502#1"/>
    </person>
    <person id="51" depart="71.40" type="DEFAULT_PEDTYPE">
        <walk from="28719125#0" to="28710621#1"/>
    </person>
    <person id="52" depart="72.80" type="DEFAULT_PEDTYPE">
        <walk from="23195736" to="28729524"/>
    </person>
    <person id="53" depart="74.20" type="DEFAULT_PEDTYPE">
        <walk from="29033731" to="23195792#0"/>
    </person>
    <person id="54" depart="75.60" type="DEFAULT_PEDTYPE">
        <walk from="192464446" to="23195751#1"/>
    </person>
    <person id="55" depart="77.00" type="DEFAULT_PEDTYPE">
        <walk from="-32062050#0" to="23195750#0"/>
    </person>
    <person id="56" depart="78.40" type="DEFAULT_PEDTYPE">
        <walk from="28998778#1" to="606454892"/>
    </person>
    <person id="57" depart="79.80" type="DEFAULT_PEDTYPE">
        <walk from="190606077#0" to="-27119325"/>
    </person>
    <person id="58" depart="81.20" type="DEFAULT_PEDTYPE">
        <walk from="1000553428" to="23195750#0"/>
    </person>
    <person id="59" depart="82.60" type="DEFAULT_PEDTYPE">
        <walk from="-116632638#2" to="184427443"/>
    </person>
    <person id="60" depart="84.00" type="DEFAULT_PEDTYPE">
        <walk from="998769538#1" to="1095603364#1"/>
    </person>
    <person id="61" depart="85.40" type="DEFAULT_PEDTYPE">
        <walk from="-23195499#1" to="29033732"/>
    </person>
    <person id="62" depart="86.80" type="DEFAULT_PEDTYPE">
        <walk from="522497449" to="28710751#0"/>
    </person>
    <person id="63" depart="88.20" type="DEFAULT_PEDTYPE">
        <walk from="522833721" to="191987468#1"/>
    </person>
    <person id="64" depart="89.60" type="DEFAULT_PEDTYPE">
        <walk from="23195500#2" to="28719191#5"/>
    </person>
    <person id="65" depart="91.00" type="DEFAULT_PEDTYPE">
        <walk from="-28729752" to="191987468#1"/>
    </person>
    <person id="66" depart="92.40" type="DEFAULT_PEDTYPE">
        <walk from="-522833738" to="193099645#0"/>
    </person>
    <person id="67" depart="93.80" type="DEFAULT_PEDTYPE">
        <walk from="28710689" to="997769913#1"/>
    </person>
    <person id="68" depart="95.20" type="DEFAULT_PEDTYPE">
        <walk from="997769913#1" to="28719193"/>
    </person>
    <person id="69" depart="96.60" type="DEFAULT_PEDTYPE">
        <walk from="539483273" to="23195501#1"/>
    </person>
    <person id="70" depart="98.00" type="DEFAULT_PEDTYPE">
        <walk from="28710621#0" to="23195502#1"/>
    </person>
    <person id="71" depart="99.40" type="DEFAULT_PEDTYPE">
        <walk from="23195325#0" to="-32062050#0"/>
    </person>
    <person id="72" depart="100.80" type="DEFAULT_PEDTYPE">
        <walk from="116632638#2" to="-191979121"/>
    </person>
    <person id="73" depart="102.20" type="DEFAULT_PEDTYPE">
        <walk from="28710755#0" to="996144770"/>
    </person>
    <person id="74" depart="103.60" type="DEFAULT_PEDTYPE">
        <walk from="-184427426#3" to="549125786#1"/>
    </person>
    <person id="75" depart="105.00" type="DEFAULT_PEDTYPE">
        <walk from="28999595#1" to="-23195496"/>
    </person>
    <person id="76" depart="106.40" type="DEFAULT_PEDTYPE">
        <walk from="116632638#0" to="-191979123"/>
    </person>
    <person id="77" depart="107.80" type="DEFAULT_PEDTYPE">
        <walk from="192464423#1" to="191987468#1"/>
    </person>
    <person id="78" depart="109.20" type="DEFAULT_PEDTYPE">
        <walk from="28718918#1" to="-322548792#1"/>
    </person>
    <person id="79" depart="110.60" type="DEFAULT_PEDTYPE">
        <walk from="23195339" to="190606077#2"/>
    </person>
    <person id="80" depart="112.00" type="DEFAULT_PEDTYPE">
        <walk from="23195800" to="23195500#2"/>
    </person>
    <person id="81" depart="113.40" type="DEFAULT_PEDTYPE">
        <walk from="-28718922#1" to="1002422790"/>
    </person>
    <person id="82" depart="114.80" type="DEFAULT_PEDTYPE">
        <walk from="191959712#0" to="116632638#2"/>
    </person>
    <person id="83" depart="116.20" type="DEFAULT_PEDTYPE">
        <walk from="998769537" to="-191959712#0"/>
    </person>
    <person id="84" depart="117.60" type="DEFAULT_PEDTYPE">
        <walk from="23195792#0" to="28719125#0"/>
    </person>
    <person id="85" depart="119.00" type="DEFAULT_PEDTYPE">
        <walk from="-322548792#5" to="998769540#1"/>
    </person>
    <person id="86" depart="120.40" type="DEFAULT_PEDTYPE">
        <walk from="29033735" to="-116632638#2"/>
    </person>
    <person id="87" depart="121.80" type="DEFAULT_PEDTYPE">
        <walk from="522833724" to="397927055#0"/>
    </person>
    <person id="88" depart="123.20" type="DEFAULT_PEDTYPE">
        <walk from="28729036" to="544210702#1"/>
    </person>
    <person id="89" depart="124.60" type="DEFAULT_PEDTYPE">
        <walk from="-522833746" to="193099645#0"/>
    </person>
    <person id="90" depart="126.00" type="DEFAULT_PEDTYPE">
        <walk from="996022767" to="191959712#0"/>
    </person>
    <person id="91" depart="127.40" type="DEFAULT_PEDTYPE">
        <walk from="191979122" to="1000553429"/>
    </person>
    <person id="92" depart="128.80" type="DEFAULT_PEDTYPE">
        <walk from="23683441#1" to="29033731"/>
    </person>
    <person id="93" depart="130.20" type="DEFAULT_PEDTYPE">
        <walk from="184427434#0" to="184427434#0"/>
    </person>
    <person id="94" depart="131.60" type="DEFAULT_PEDTYPE">
        <walk from="998769533" to="647483358"/>
    </person>
    <person id="95" depart="133.00" type="DEFAULT_PEDTYPE">
        <walk from="1095603365#0" to="461160629"/>
    </person>
    <person id="96" depart="134.40" type="DEFAULT_PEDTYPE">
        <walk from="116632638#2" to="461160629"/>
    </person>
    <person id="97" depart="135.80" type="DEFAULT_PEDTYPE">
        <walk from="23195501#1" to="-522833753"/>
    </person>
    <person id="98" depart="137.20" type="DEFAULT_PEDTYPE">
        <walk from="28998778#1" to="23195501#1"/>
    </person>
    <person id="99" depart="138.60" type="DEFAULT_PEDTYPE">
        <walk from="544210703#0" to="545660374#1"/>
    </person>
    <person id="100" depart="140.00" type="DEFAULT_PEDTYPE">
        <walk from="-28719125#0" to="539419137#1"/>
    </person>
    <person id="101" depart="141.40" type="DEFAULT_PEDTYPE">
        <walk from="29033802" to="23195502#1"/>
    </person>
    <person id="102" depart="142.80" type="DEFAULT_PEDTYPE">
        <walk from="998798218" to="23195330#1"/>
    </person>
    <person id="103" depart="144.20" type="DEFAULT_PEDTYPE">
        <walk from="23195500#2" to="28998778#1"/>
    </person>
    <person id="104" depart="145.60" type="DEFAULT_PEDTYPE">
        <walk from="23196322#0" to="191987466"/>
    </person>
    <person id="105" depart="147.00" type="DEFAULT_PEDTYPE">
        <walk from="23195339" to="23195800"/>
    </person>
    <person id="106" depart="148.40" type="DEFAULT_PEDTYPE">
        <walk from="28708934#1" to="28998662#1"/>
    </person>
    <person id="107" depart="149.80" type="DEFAULT_PEDTYPE">
        <walk from="28719327" to="-191979123"/>
    </person>
    <person id="108" depart="151.20" type="DEFAULT_PEDTYPE">
        <walk from="23195798" to="28710621#5"/>
    </person>
    <person id="109" depart="152.60" type="DEFAULT_PEDTYPE">
        <walk from="545660374#1" to="-322548792#10"/>
    </person>
    <person id="110" depart="154.00" type="DEFAULT_PEDTYPE">
        <walk from="191979127#3" to="-116632638#0"/>
    </person>
    <person id="111" depart="155.40" type="DEFAULT_PEDTYPE">
        <walk from="484372692" to="190606085"/>
    </person>
    <person id="112" depart="156.80" type="DEFAULT_PEDTYPE">
        <walk from="-522833746" to="29033802"/>
    </person>
    <person id="113" depart="158.20" type="DEFAULT_PEDTYPE">
        <walk from="116632638#2" to="193099645#2"/>
    </person>
    <person id="114" depart="159.60" type="DEFAULT_PEDTYPE">
        <walk from="29033734#2" to="23195793"/>
    </person>
    <person id="115" depart="161.00" type="DEFAULT_PEDTYPE">
        <walk from="23195500#2" to="28719327"/>
    </person>
    <person id="116" depart="162.40" type="DEFAULT_PEDTYPE">
        <walk from="655717643" to="322548792#6"/>
    </person>
    <person id="117" depart="163.80" type="DEFAULT_PEDTYPE">
        <walk from="522497449" to="-116632638#0"/>
    </person>
    <person id="118" depart="165.20" type="DEFAULT_PEDTYPE">
        <walk from="322548792#10" to="647483358"/>
    </person>
    <person id="119" depart="166.60" type="DEFAULT_PEDTYPE">
        <walk from="539483276" to="23195752#0"/>
    </person>
    <person id="120" depart="168.00" type="DEFAULT_PEDTYPE">
        <walk from="190606073" to="1095603365#2"/>
    </person>
    <person id="121" depart="169.40" type="DEFAULT_PEDTYPE">
        <walk from="522833753" to="995252090"/>
    </person>
    <person id="122" depart="170.80" type="DEFAULT_PEDTYPE">
        <walk from="23195754#4" to="647789894"/>
    </person>
    <person id="123" depart="172.20" type="DEFAULT_PEDTYPE">
        <walk from="997769913#1" to="191979118#0"/>
    </person>
    <person id="124" depart="173.60" type="DEFAULT_PEDTYPE">
        <walk from="995252087#1" to="23195750#4"/>
    </person>
    <person id="125" depart="175.00" type="DEFAULT_PEDTYPE">
        <walk from="998769540#1" to="584987256"/>
    </person>
    <person id="126" depart="176.40" type="DEFAULT_PEDTYPE">
        <walk from="190606077#2" to="23195736"/>
    </person>
    <person id="127" depart="177.80" type="DEFAULT_PEDTYPE">
        <walk from="23195499#2" to="1094949085#0"/>
    </person>
    <person id="128" depart="179.20" type="DEFAULT_PEDTYPE">
        <walk from="539483276" to="28710410#2"/>
    </person>
    <person id="129" depart="180.60" type="DEFAULT_PEDTYPE">
        <walk from="-1000553429" to="29072594"/>
    </person>
    <person id="130" depart="182.00" type="DEFAULT_PEDTYPE">
        <walk from="54704028#1" to="28998778#1"/>
    </person>
    <person id="131" depart="183.40" type="DEFAULT_PEDTYPE">
        <walk from="-28998663" to="522833721"/>
    </person>
    <person id="132" depart="184.80" type="DEFAULT_PEDTYPE">
        <walk from="322548792#6" to="23195795"/>
    </person>
    <person id="133" depart="186.20" type="DEFAULT_PEDTYPE">
        <walk from="23195804#0" to="-23196319"/>
    </person>
    <person id="134" depart="187.60" type="DEFAULT_PEDTYPE">
        <walk from="545660374#1" to="23195799#0"/>
    </person>
    <person id="135" depart="189.00" type="DEFAULT_PEDTYPE">
        <walk from="545660374#1" to="28998663"/>
    </person>
    <person id="136" depart="190.40" type="DEFAULT_PEDTYPE">
        <walk from="655717640#1" to="-28710755#2"/>
    </person>
    <person id="137" depart="191.80" type="DEFAULT_PEDTYPE">
        <walk from="-998769538#0" to="184427426#0"/>
    </person>
    <person id="138" depart="193.20" type="DEFAULT_PEDTYPE">
        <walk from="-322548792#5" to="23195792#0"/>
    </person>
    <person id="139" depart="194.60" type="DEFAULT_PEDTYPE">
        <walk from="539483273" to="23196322#0"/>
    </person>
    <person id="140" depart="196.00" type="DEFAULT_PEDTYPE">
        <walk from="193099645#2" to="28710755#0"/>
    </person>
    <person id="141" depart="197.40" type="DEFAULT_PEDTYPE">
        <walk from="1095603364#1" to="-23195499#2"/>
    </person>
    <person id="142" depart="198.80" type="DEFAULT_PEDTYPE">
        <walk from="28729752" to="545476129#5"/>
    </person>
    <person id="143" depart="200.20" type="DEFAULT_PEDTYPE">
        <walk from="23195803" to="993930098"/>
    </person>
    <person id="144" depart="201.60" type="DEFAULT_PEDTYPE">
        <walk from="-191987466" to="23195500#2"/>
    </person>
    <person id="145" depart="203.00" type="DEFAULT_PEDTYPE">
        <walk from="485720694" to="28710753"/>
    </person>
    <person id="146" depart="204.40" type="DEFAULT_PEDTYPE">
        <walk from="-32062050#0" to="23195750#3"/>
    </person>
    <person id="147" depart="205.80" type="DEFAULT_PEDTYPE">
        <walk from="23196319" to="545722933#2"/>
    </person>
    <person id="148" depart="207.20" type="DEFAULT_PEDTYPE">
        <walk from="123592772#2" to="-28719125#0"/>
    </person>
    <person id="149" depart="208.60" type="DEFAULT_PEDTYPE">
        <walk from="998769537" to="191959704#1"/>
    </person>
    <person id="150" depart="210.00" type="DEFAULT_PEDTYPE">
        <walk from="-28719192" to="23195329#1"/>
    </person>
    <person id="151" depart="211.40" type="DEFAULT_PEDTYPE">
        <walk from="-322548792#10" to="23195329#1"/>
    </person>
    <person id="152" depart="212.80" type="DEFAULT_PEDTYPE">
        <walk from="-322548792#4" to="28718922#1"/>
    </person>
    <person id="153" depart="214.20" type="DEFAULT_PEDTYPE">
        <walk from="-23195751#2" to="28719191#4"/>
    </person>
    <person id="154" depart="215.60" type="DEFAULT_PEDTYPE">
        <walk from="28998778#1" to="-191959706#0"/>
    </person>
    <person id="155" depart="217.00" type="DEFAULT_PEDTYPE">
        <walk from="191979120" to="539419144"/>
    </person>
    <person id="156" depart="218.40" type="DEFAULT_PEDTYPE">
        <walk from="996144773" to="655717649#4"/>
    </person>
    <person id="157" depart="219.80" type="DEFAULT_PEDTYPE">
        <walk from="23195794" to="647483360#0"/>
    </person>
    <person id="158" depart="221.20" type="DEFAULT_PEDTYPE">
        <walk from="23195500#2" to="-23195499#1"/>
    </person>
    <person id="159" depart="222.60" type="DEFAULT_PEDTYPE">
        <walk from="23195328#1" to="-23195799#0"/>
    </person>
    <person id="160" depart="224.00" type="DEFAULT_PEDTYPE">
        <walk from="23195793" to="-191979123"/>
    </person>
    <person id="161" depart="225.40" type="DEFAULT_PEDTYPE">
        <walk from="23195330#1" to="185271779#1"/>
    </person>
    <person id="162" depart="226.80" type="DEFAULT_PEDTYPE">
        <walk from="193099645#1" to="484335723#1"/>
    </person>
    <person id="163" depart="228.20" type="DEFAULT_PEDTYPE">
        <walk from="23195795" to="28710410#2"/>
    </person>
    <person id="164" depart="229.60" type="DEFAULT_PEDTYPE">
        <walk from="655717650#0" to="-28729524"/>
    </person>
    <person id="165" depart="231.00" type="DEFAULT_PEDTYPE">
        <walk from="-522833746" to="-522833746"/>
    </person>
    <person id="166" depart="232.40" type="DEFAULT_PEDTYPE">
        <walk from="23195792#0" to="-322548792#8"/>
    </person>
    <person id="167" depart="233.80" type="DEFAULT_PEDTYPE">
        <walk from="29072594" to="28709109#0"/>
    </person>
    <person id="168" depart="235.20" type="DEFAULT_PEDTYPE">
        <walk from="-32062050#0" to="184427434#0"/>
    </person>
    <person id="169" depart="236.60" type="DEFAULT_PEDTYPE">
        <walk from="185096716#1" to="28718918#1"/>
    </person>
    <person id="170" depart="238.00" type="DEFAULT_PEDTYPE">
        <walk from="539419144" to="191979127#0"/>
    </person>
    <person id="171" depart="239.40" type="DEFAULT_PEDTYPE">
        <walk from="322548792#10" to="539483276"/>
    </person>
    <person id="172" depart="240.80" type="DEFAULT_PEDTYPE">
        <walk from="539419146#1" to="1002422790"/>
    </person>
    <person id="173" depart="242.20" type="DEFAULT_PEDTYPE">
        <walk from="190606070" to="-28710755#0"/>
    </person>
    <person id="174" depart="243.60" type="DEFAULT_PEDTYPE">
        <walk from="661212190" to="23195330#1"/>
    </person>
    <person id="175" depart="245.00" type="DEFAULT_PEDTYPE">
        <walk from="28709109#0" to="1095603365#1"/>
    </person>
    <person id="176" depart="246.40" type="DEFAULT_PEDTYPE">
        <walk from="190606079#0" to="996022767"/>
    </person>
    <person id="177" depart="247.80" type="DEFAULT_PEDTYPE">
        <walk from="998769529" to="28710621#5"/>
    </person>
    <person id="178" depart="249.20" type="DEFAULT_PEDTYPE">
        <walk from="23195792#0" to="997944688#1"/>
    </person>
    <person id="179" depart="250.60" type="DEFAULT_PEDTYPE">
        <walk from="28999595#1" to="28998662#1"/>
    </person>
    <person id="180" depart="252.00" type="DEFAULT_PEDTYPE">
        <walk from="-32062050#0" to="998769537"/>
    </person>
    <person id="181" depart="253.40" type="DEFAULT_PEDTYPE">
        <walk from="191987465#0" to="545476129#5"/>
    </person>
    <person id="182" depart="254.80" type="DEFAULT_PEDTYPE">
        <walk from="-184427426#0" to="28710621#2"/>
    </person>
    <person id="183" depart="256.20" type="DEFAULT_PEDTYPE">
        <walk from="-23195751#1" to="191987466"/>
    </person>
    <person id="184" depart="257.60" type="DEFAULT_PEDTYPE">
        <walk from="-522833746" to="191979118#0"/>
    </person>
    <person id="185" depart="259.00" type="DEFAULT_PEDTYPE">
        <walk from="655717644#1" to="-32062050#0"/>
    </person>
    <person id="186" depart="260.40" type="DEFAULT_PEDTYPE">
        <walk from="23683441#0" to="23195749#0"/>
    </person>
    <person id="187" depart="261.80" type="DEFAULT_PEDTYPE">
        <walk from="545476129#5" to="28708935#0"/>
    </person>
    <person id="188" depart="263.20" type="DEFAULT_PEDTYPE">
        <walk from="993930098" to="185271780#1"/>
    </person>
    <person id="189" depart="264.60" type="DEFAULT_PEDTYPE">
        <walk from="998769532" to="28708934#0"/>
    </person>
    <person id="190" depart="266.00" type="DEFAULT_PEDTYPE">
        <walk from="-23196319" to="997944679#1"/>
    </person>
    <person id="191" depart="267.40" type="DEFAULT_PEDTYPE">
        <walk from="461160629" to="28719193"/>
    </person>
    <person id="192" depart="268.80" type="DEFAULT_PEDTYPE">
        <walk from="29241566#0" to="23195338"/>
    </person>
    <person id="193" depart="270.20" type="DEFAULT_PEDTYPE">
        <walk from="28709110#1" to="191979118#0"/>
    </person>
    <person id="194" depart="271.60" type="DEFAULT_PEDTYPE">
        <walk from="-23195751#1" to="-23195496"/>
    </person>
    <person id="195" depart="273.00" type="DEFAULT_PEDTYPE">
        <walk from="23195503" to="28998662#1"/>
    </person>
    <person id="196" depart="274.40" type="DEFAULT_PEDTYPE">
        <walk from="190606085" to="23195804#0"/>
    </person>
    <person id="197" depart="275.80" type="DEFAULT_PEDTYPE">
        <walk from="123592772#1" to="192464426"/>
    </person>
    <person id="198" depart="277.20" type="DEFAULT_PEDTYPE">
        <walk from="23195500#2" to="661212190"/>
    </person>
    <person id="199" depart="278.60" type="DEFAULT_PEDTYPE">
        <walk from="998769538#0" to="655717649#4"/>
    </person>
    <person id="200" depart="280.00" type="DEFAULT_PEDTYPE">
        <walk from="28710412#2" to="191959712#0"/>
    </person>
    <person id="201" depart="281.40" type="DEFAULT_PEDTYPE">
        <walk from="28729036" to="452767836#0"/>
    </person>
    <person id="202" depart="282.80" type="DEFAULT_PEDTYPE">
        <walk from="23195801" to="23195793"/>
    </person>
    <person id="203" depart="284.20" type="DEFAULT_PEDTYPE">
        <walk from="388909094" to="28710410#2"/>
    </person>
    <person id="204" depart="285.60" type="DEFAULT_PEDTYPE">
        <walk from="29241566#0" to="-184427426#1"/>
    </person>
    <person id="205" depart="287.00" type="DEFAULT_PEDTYPE">
        <walk from="1095603366#1" to="191987465#0"/>
    </person>
    <person id="206" depart="288.40" type="DEFAULT_PEDTYPE">
        <walk from="23195503" to="435838563"/>
    </person>
    <person id="207" depart="289.80" type="DEFAULT_PEDTYPE">
        <walk from="522833750#1" to="32062050#1"/>
    </person>
    <person id="208" depart="291.20" type="DEFAULT_PEDTYPE">
        <walk from="28710412#1" to="-28729030#1"/>
    </person>
    <person id="209" depart="292.60" type="DEFAULT_PEDTYPE">
        <walk from="184427434#0" to="28708934#0"/>
    </person>
    <person id="210" depart="294.00" type="DEFAULT_PEDTYPE">
        <walk from="545476127#1" to="655717643"/>
    </person>
    <person id="211" depart="295.40" type="DEFAULT_PEDTYPE">
        <walk from="545476129#5" to="28998778#2"/>
    </person>
    <person id="212" depart="296.80" type="DEFAULT_PEDTYPE">
        <walk from="-185271780#1" to="544210702#0"/>
    </person>
    <person id="213" depart="298.20" type="DEFAULT_PEDTYPE">
        <walk from="23195328#1" to="461160629"/>
    </person>
    <person id="214" depart="299.60" type="DEFAULT_PEDTYPE">
        <walk from="23683441#0" to="993884076#1"/>
    </person>
    <person id="215" depart="301.00" type="DEFAULT_PEDTYPE">
        <walk from="190606073" to="190606073"/>
    </person>
    <person id="216" depart="302.40" type="DEFAULT_PEDTYPE">
        <walk from="-474164620#2" to="-116632638#2"/>
    </person>
    <person id="217" depart="303.80" type="DEFAULT_PEDTYPE">
        <walk from="23195793" to="23195792#0"/>
    </person>
    <person id="218" depart="305.20" type="DEFAULT_PEDTYPE">
        <walk from="-23195499#2" to="28710412#2"/>
    </person>
    <person id="219" depart="306.60" type="DEFAULT_PEDTYPE">
        <walk from="539483276" to="123592772#2"/>
    </person>
    <person id="220" depart="308.00" type="DEFAULT_PEDTYPE">
        <walk from="28710689" to="-474164621"/>
    </person>
    <person id="221" depart="309.40" type="DEFAULT_PEDTYPE">
        <walk from="539483280#1" to="123592772#1"/>
    </person>
    <person id="222" depart="310.80" type="DEFAULT_PEDTYPE">
        <walk from="28710621#4" to="539419144"/>
    </person>
    <person id="223" depart="312.20" type="DEFAULT_PEDTYPE">
        <walk from="185271779#1" to="-23195751#0"/>
    </person>
    <person id="224" depart="313.60" type="DEFAULT_PEDTYPE">
        <walk from="23195750#3" to="29033731"/>
    </person>
    <person id="225" depart="315.00" type="DEFAULT_PEDTYPE">
        <walk from="116632638#2" to="28708935#0"/>
    </person>
    <person id="226" depart="316.40" type="DEFAULT_PEDTYPE">
        <walk from="545660375#0" to="1095603371#1"/>
    </person>
    <person id="227" depart="317.80" type="DEFAULT_PEDTYPE">
        <walk from="-184427426#4" to="28729036"/>
    </person>
    <person id="228" depart="319.20" type="DEFAULT_PEDTYPE">
        <walk from="28709110#1" to="191987465#0"/>
    </person>
    <person id="229" depart="320.60" type="DEFAULT_PEDTYPE">
        <walk from="191979127#0" to="23195499#2"/>
    </person>
    <person id="230" depart="322.00" type="DEFAULT_PEDTYPE">
        <walk from="23195502#1" to="184427434#0"/>
    </person>
    <person id="231" depart="323.40" type="DEFAULT_PEDTYPE">
        <walk from="192464446" to="993930088"/>
    </person>
    <person id="232" depart="324.80" type="DEFAULT_PEDTYPE">
        <walk from="-28729524" to="544210703#0"/>
    </person>
    <person id="233" depart="326.20" type="DEFAULT_PEDTYPE">
        <walk from="28710755#0" to="-191987466"/>
    </person>
    <person id="234" depart="327.60" type="DEFAULT_PEDTYPE">
        <walk from="29072594" to="484372692"/>
    </person>
    <person id="235" depart="329.00" type="DEFAULT_PEDTYPE">
        <walk from="23195750#0" to="996022769#1"/>
    </person>