<?xml version="1.0" encoding="UTF-8"?>

<!-- generated on 2022-12-05 11:37:00.607594 by randomTrips.py v1_15_0+0682-ef022823415
<configuration>
    <end value="1000"/>
    <length value="True"/>
    <max-distance value="800.0"/>
    <net-file value="/home/toore/Tirocinio_SUMO/Scenario/Modena/osm.net.xml"/>
    <pedestrians value="True"/>
    <period value="1.4"/>
    <random value="True"/>
    <random-depart value="True"/>
    <route-file value="peds.rou.xml"/>
    <seed value="100000"/>
    <trip-attributes value="type=&quot;DEFAULT_PEDTYPE&quot;"/>
</configuration>
-->

<routes xmlns:xsi="http://www.w3.org/2001/XMLSchema-instance" xsi:noNamespaceSchemaLocation="http://sumo.dlr.de/xsd/routes_file.xsd">
    <person id="0" depart="0.80" type="DEFAULT_PEDTYPE">
        <walk from="29033731" to="-191987469#1"/>
    </person>
    <person id="1" depart="1.20" type="DEFAULT_PEDTYPE">
        <walk from="23195803" to="23195328#1"/>
    </person>
    <person id="2" depart="1.20" type="DEFAULT_PEDTYPE">
        <walk from="998769529" to="995252087#1"/>
    </person>
    <person id="3" depart="2.80" type="DEFAULT_PEDTYPE">
        <walk from="23195804#0" to="1001467661"/>
    </person>
    <person id="4" depart="5.20" type="DEFAULT_PEDTYPE">
        <walk from="655717642" to="996022767"/>
    </person>
    <person id="5" depart="6.80" type="DEFAULT_PEDTYPE">
        <walk from="446644391#1" to="23195329#1"/>
    </person>
    <person id="6" depart="7.80" type="DEFAULT_PEDTYPE">
        <walk from="-1000553429" to="191979118#0"/>
    </person>
    <person id="7" depart="8.60" type="DEFAULT_PEDTYPE">
        <walk from="996144772#1" to="-184427426#1"/>
    </person>
    <person id="8" depart="9.20" type="DEFAULT_PEDTYPE">
        <walk from="23195795" to="123592772#1"/>
    </person>
    <person id="9" depart="10.60" type="DEFAULT_PEDTYPE">
        <walk from="28729034#0" to="28999595#1"/>
    </person>
    <person id="10" depart="10.80" type="DEFAULT_PEDTYPE">
        <walk from="28718918#1" to="-522833746"/>
    </person>
    <person id="11" depart="11.60" type="DEFAULT_PEDTYPE">
        <walk from="190606077#5" to="23195744"/>
    </person>
    <person id="12" depart="12.00" type="DEFAULT_PEDTYPE">
        <walk from="996144772#1" to="23195752#2"/>
    </person>
    <person id="13" depart="15.20" type="DEFAULT_PEDTYPE">
        <walk from="28710621#0" to="-485720694"/>
    </person>
    <person id="14" depart="17.60" type="DEFAULT_PEDTYPE">
        <walk from="23195336#1" to="184427434#0"/>
    </person>
    <person id="15" depart="17.80" type="DEFAULT_PEDTYPE">
        <walk from="28719193" to="28708932"/>
    </person>
    <person id="16" depart="19.80" type="DEFAULT_PEDTYPE">
        <walk from="647483358" to="23195754#4"/>
    </person>
    <person id="17" depart="21.20" type="DEFAULT_PEDTYPE">
        <walk from="545660374#1" to="-28710755#2"/>
    </person>
    <person id="18" depart="24.20" type="DEFAULT_PEDTYPE">
        <walk from="23195749#0" to="190606085"/>
    </person>
    <person id="19" depart="25.60" type="DEFAULT_PEDTYPE">
        <walk from="29072594" to="1001467661"/>
    </person>
    <person id="20" depart="27.80" type="DEFAULT_PEDTYPE">
        <walk from="-23195751#0" to="-184427426#3"/>
    </person>
    <person id="21" depart="28.80" type="DEFAULT_PEDTYPE">
        <walk from="28710755#0" to="193099645#1"/>
    </person>
    <person id="22" depart="30.00" type="DEFAULT_PEDTYPE">
        <walk from="23195752#1" to="23195502#1"/>
    </person>
    <person id="23" depart="31.80" type="DEFAULT_PEDTYPE">
        <walk from="997944688#1" to="545660374#1"/>
    </person>
    <person id="24" depart="35.80" type="DEFAULT_PEDTYPE">
        <walk from="29033735" to="23195500#1"/>
    </person>
    <person id="25" depart="35.80" type="DEFAULT_PEDTYPE">
        <walk from="28998778#2" to="-522833738"/>
    </person>
    <person id="26" depart="40.00" type="DEFAULT_PEDTYPE">
        <walk from="-23195751#1" to="191979123"/>
    </person>
    <person id="27" depart="44.60" type="DEFAULT_PEDTYPE">
        <walk from="539419144" to="606454892"/>
    </person>
    <person id="28" depart="46.00" type="DEFAULT_PEDTYPE">
        <walk from="23683441#1" to="28718918#1"/>
    </person>
    <person id="29" depart="46.20" type="DEFAULT_PEDTYPE">
        <walk from="655693841" to="544210703#0"/>
    </person>
    <person id="30" depart="49.40" type="DEFAULT_PEDTYPE">
        <walk from="655693841" to="-28729524"/>
    </person>
    <person id="31" depart="49.80" type="DEFAULT_PEDTYPE">
        <walk from="-322548792#10" to="23195800"/>
    </person>
    <person id="32" depart="50.80" type="DEFAULT_PEDTYPE">
        <walk from="322548792#4" to="29072594"/>
    </person>
    <person id="33" depart="50.80" type="DEFAULT_PEDTYPE">
        <walk from="23195325#1" to="23195736"/>
    </person>
    <person id="34" depart="52.00" type="DEFAULT_PEDTYPE">
        <walk from="185271779#1" to="28729524"/>
    </person>
    <person id="35" depart="52.80" type="DEFAULT_PEDTYPE">
        <walk from="539483276" to="185096716#0"/>
    </person>
    <person id="36" depart="53.20" type="DEFAULT_PEDTYPE">
        <walk from="28998778#3" to="1095603366#1"/>
    </person>
    <person id="37" depart="58.40" type="DEFAULT_PEDTYPE">
        <walk from="28710751#0" to="23195501#1"/>
    </person>
    <person id="38" depart="59.20" type="DEFAULT_PEDTYPE">
        <walk from="23195328#2" to="655717640#1"/>
    </person>
    <person id="39" depart="65.20" type="DEFAULT_PEDTYPE">
        <walk from="192464446" to="23195804#0"/>
    </person>
    <person id="40" depart="66.40" type="DEFAULT_PEDTYPE">
        <walk from="539483270" to="23195793"/>
    </person>
    <person id="41" depart="69.20" type="DEFAULT_PEDTYPE">
        <walk from="23195328#0" to="23195751#1"/>
    </person>
    <person id="42" depart="71.60" type="DEFAULT_PEDTYPE">
        <walk from="28999595#1" to="23195793"/>
    </person>
    <person id="43" depart="74.40" type="DEFAULT_PEDTYPE">
        <walk from="29241566#0" to="587561458"/>
    </person>
    <person id="44" depart="75.60" type="DEFAULT_PEDTYPE">
        <walk from="29241566#0" to="23195804#0"/>
    </person>
    <person id="45" depart="76.00" type="DEFAULT_PEDTYPE">
        <walk from="23195338" to="655717649#0"/>
    </person>
    <person id="46" depart="80.40" type="DEFAULT_PEDTYPE">
        <walk from="191987466" to="27119325"/>
    </person>
    <person id="47" depart="80.40" type="DEFAULT_PEDTYPE">
        <walk from="584987256" to="193099645#0"/>
    </person>
    <person id="48" depart="80.80" type="DEFAULT_PEDTYPE">
        <walk from="23195751#1" to="193099645#0"/>
    </person>
    <person id="49" depart="83.00" type="DEFAULT_PEDTYPE">
        <walk from="192464423#1" to="322548792#4"/>
    </person>
    <person id="50" depart="83.40" type="DEFAULT_PEDTYPE">
        <walk from="-184427426#0" to="539419137#1"/>
    </person>
    <person id="51" depart="83.40" type="DEFAULT_PEDTYPE">
        <walk from="23195798" to="193099645#0"/>
    </person>
    <person id="52" depart="85.00" type="DEFAULT_PEDTYPE">
        <walk from="545660374#1" to="1094949085#2"/>
    </person>
    <person id="53" depart="87.20" type="DEFAULT_PEDTYPE">
        <walk from="28719193" to="1000553429"/>
    </person>
    <person id="54" depart="87.80" type="DEFAULT_PEDTYPE">
        <walk from="23195750#0" to="23683441#1"/>
    </person>
    <person id="55" depart="87.80" type="DEFAULT_PEDTYPE">
        <walk from="28718918#1" to="1000553429"/>
    </person>
    <person id="56" depart="88.20" type="DEFAULT_PEDTYPE">
        <walk from="28710621#1" to="1000553429"/>
    </person>
    <person id="57" depart="89.00" type="DEFAULT_PEDTYPE">
        <walk from="116632638#2" to="28718922#1"/>
    </person>
    <person id="58" depart="90.20" type="DEFAULT_PEDTYPE">
        <walk from="191959704#1" to="23195736"/>
    </person>
    <person id="59" depart="94.20" type="DEFAULT_PEDTYPE">
        <walk from="23195792#0" to="539483270"/>
    </person>
    <person id="60" depart="97.40" type="DEFAULT_PEDTYPE">
        <walk from="-28718922#1" to="28998778#1"/>
    </person>
    <person id="61" depart="97.80" type="DEFAULT_PEDTYPE">
        <walk from="23195752#1" to="1095603364#1"/>
    </person>
    <person id="62" depart="99.40" type="DEFAULT_PEDTYPE">
        <walk from="23195754#1" to="23195328#3"/>
    </person>
    <person id="63" depart="99.80" type="DEFAULT_PEDTYPE">
        <walk from="998769540#1" to="539419146#1"/>
    </person>
    <person id="64" depart="100.60" type="DEFAULT_PEDTYPE">
        <walk from="655717644#1" to="23195803"/>
    </person>
    <person id="65" depart="101.40" type="DEFAULT_PEDTYPE">
        <walk from="1094949085#2" to="23195799#0"/>
    </person>
    <person id="66" depart="101.80" type="DEFAULT_PEDTYPE">
        <walk from="353382750#1" to="-28710790#1"/>
    </person>
    <person id="67" depart="103.40" type="DEFAULT_PEDTYPE">
        <walk from="606454892" to="484372692"/>
    </person>
    <person id="68" depart="106.00" type="DEFAULT_PEDTYPE">
        <walk from="32062050#1" to="193099645#1"/>
    </person>
    <person id="69" depart="106.40" type="DEFAULT_PEDTYPE">
        <walk from="539483276" to="539483280#1"/>
    </person>
    <person id="70" depart="107.40" type="DEFAULT_PEDTYPE">
        <walk from="545476129#5" to="29241566#0"/>
    </person>
    <person id="71" depart="108.40" type="DEFAULT_PEDTYPE">
        <walk from="998798218" to="23195804#0"/>
    </person>
    <person id="72" depart="108.80" type="DEFAULT_PEDTYPE">
        <walk from="28718922#1" to="996022769#1"/>
    </person>
    <person id="73" depart="110.20" type="DEFAULT_PEDTYPE">
        <walk from="1095603369#0" to="23195339"/>
    </person>
    <person id="74" depart="111.80" type="DEFAULT_PEDTYPE">
        <walk from="23195500#1" to="23195502#1"/>
    </person>
    <person id="75" depart="112.00" type="DEFAULT_PEDTYPE">
        <walk from="191979123" to="116632638#2"/>
    </person>
    <person id="76" depart="112.20" type="DEFAULT_PEDTYPE">
        <walk from="23683441#1" to="655717649#4"/>
    </person>
    <person id="77" depart="114.40" type="DEFAULT_PEDTYPE">
        <walk from="29241566#0" to="647789894"/>
    </person>
    <person id="78" depart="118.20" type="DEFAULT_PEDTYPE">
        <walk from="28719191#5" to="522833732#1"/>
    </person>
    <person id="79" depart="118.60" type="DEFAULT_PEDTYPE">
        <walk from="23195794" to="998769541#1"/>
    </person>
    <person id="80" depart="121.60" type="DEFAULT_PEDTYPE">
        <walk from="29033732" to="539483276"/>
    </person>
    <person id="81" depart="128.40" type="DEFAULT_PEDTYPE">
        <walk from="23195754#4" to="-23196319"/>
    </person>
    <person id="82" depart="128.80" type="DEFAULT_PEDTYPE">
        <walk from="193099645#2" to="23195500#2"/>
    </person>
    <person id="83" depart="129.00" type="DEFAULT_PEDTYPE">
        <walk from="191987466" to="28718922#1"/>
    </person>
    <person id="84" depart="130.00" type="DEFAULT_PEDTYPE">
        <walk from="1002422788" to="997944679#1"/>
    </person>
    <person id="85" depart="131.20" type="DEFAULT_PEDTYPE">
        <walk from="1001467661" to="190606085"/>
    </person>
    <person id="86" depart="133.00" type="DEFAULT_PEDTYPE">
        <walk from="28999218" to="-522833746"/>
    </person>
    <person id="87" depart="133.60" type="DEFAULT_PEDTYPE">
        <walk from="193099645#2" to="28710751#0"/>
    </person>
    <person id="88" depart="136.20" type="DEFAULT_PEDTYPE">
        <walk from="116632638#1" to="28999218"/>
    </person>
    <person id="89" depart="136.60" type="DEFAULT_PEDTYPE">
        <walk from="28999595#1" to="522833731#1"/>
    </person>
    <person id="90" depart="137.20" type="DEFAULT_PEDTYPE">
        <walk from="28719327" to="185096716#1"/>
    </person>
    <person id="91" depart="137.20" type="DEFAULT_PEDTYPE">
        <walk from="-23195799#0" to="23195744"/>
    </person>
    <person id="92" depart="138.80" type="DEFAULT_PEDTYPE">
        <walk from="23195752#1" to="606454892"/>
    </person>
    <person id="93" depart="139.20" type="DEFAULT_PEDTYPE">
        <walk from="29241566#0" to="1000553429"/>
    </person>
    <person id="94" depart="139.40" type="DEFAULT_PEDTYPE">
        <walk from="-29072597#1" to="993884076#1"/>
    </person>
    <person id="95" depart="140.60" type="DEFAULT_PEDTYPE">
        <walk from="-23195496" to="-184427426#1"/>
    </person>
    <person id="96" depart="143.60" type="DEFAULT_PEDTYPE">
        <walk from="-322548792#6" to="545476129#5"/>
    </person>
    <person id="97" depart="144.00" type="DEFAULT_PEDTYPE">
        <walk from="-28718922#1" to="191871225#2"/>
    </person>
    <person id="98" depart="147.40" type="DEFAULT_PEDTYPE">
        <walk from="-23195751#0" to="23195794"/>
    </person>
    <person id="99" depart="147.60" type="DEFAULT_PEDTYPE">
        <walk from="23195336#1" to="28998778#1"/>
    </person>
    <person id="100" depart="147.80" type="DEFAULT_PEDTYPE">
        <walk from="23195750#3" to="185271780#1"/>
    </person>
    <person id="101" depart="148.00" type="DEFAULT_PEDTYPE">
        <walk from="-28710755#2" to="191959712#0"/>
    </person>
    <person id="102" depart="148.80" type="DEFAULT_PEDTYPE">
        <walk from="322548792#1" to="-184427426#0"/>
    </person>
    <person id="103" depart="152.00" type="DEFAULT_PEDTYPE">
        <walk from="-184427426#3" to="-32062050#0"/>
    </person>
    <person id="104" depart="153.00" type="DEFAULT_PEDTYPE">
        <walk from="545476129#5" to="184427426#0"/>
    </person>
    <person id="105" depart="153.80" type="DEFAULT_PEDTYPE">
        <walk from="998769537" to="29241566#0"/>
    </person>
    <person id="106" depart="154.60" type="DEFAULT_PEDTYPE">
        <walk from="23683441#0" to="23195328#3"/>
    </person>
    <person id="107" depart="158.60" type="DEFAULT_PEDTYPE">
        <walk from="116985957#0" to="28710621#4"/>
    </person>
    <person id="108" depart="160.00" type="DEFAULT_PEDTYPE">
        <walk from="28710934" to="1002422790"/>
    </person>
    <person id="109" depart="160.80" type="DEFAULT_PEDTYPE">
        <walk from="23196322#0" to="998769533"/>
    </person>
    <person id="110" depart="162.00" type="DEFAULT_PEDTYPE">
        <walk from="452767836#1" to="545660375#0"/>
    </person>
    <person id="111" depart="162.80" type="DEFAULT_PEDTYPE">
        <walk from="-23195799#0" to="192464423#1"/>
    </person>
    <person id="112" depart="162.80" type="DEFAULT_PEDTYPE">
        <walk from="28709110#1" to="584987256"/>
    </person>
    <person id="113" depart="166.40" type="DEFAULT_PEDTYPE">
        <walk from="28710934" to="23195501#1"/>
    </person>
    <person id="114" depart="166.40" type="DEFAULT_PEDTYPE">
        <walk from="28708935#0" to="545496366#1"/>
    </person>
    <person id="115" depart="166.60" type="DEFAULT_PEDTYPE">
        <walk from="28719327" to="-185271779#1"/>
    </person>
    <person id="116" depart="166.80" type="DEFAULT_PEDTYPE">
        <walk from="190606085" to="-184427426#1"/>
    </person>
    <person id="117" depart="167.60" type="DEFAULT_PEDTYPE">
        <walk from="28718918#1" to="23195339"/>
    </person>
    <person id="118" depart="168.40" type="DEFAULT_PEDTYPE">
        <walk from="28729752" to="23195503"/>
    </person>
    <person id="119" depart="168.60" type="DEFAULT_PEDTYPE">
        <walk from="23195751#2" to="23195502#1"/>
    </person>
    <person id="120" depart="170.60" type="DEFAULT_PEDTYPE">
        <walk from="191871225#2" to="23195752#2"/>
    </person>
    <person id="121" depart="174.80" type="DEFAULT_PEDTYPE">
        <walk from="655693839" to="-184427426#0"/>
    </person>
    <person id="122" depart="175.40" type="DEFAULT_PEDTYPE">
        <walk from="29072594" to="484372692"/>
    </person>
    <person id="123" depart="175.60" type="DEFAULT_PEDTYPE">
        <walk from="461160629" to="29033731"/>
    </person>
    <person id="124" depart="176.20" type="DEFAULT_PEDTYPE">
        <walk from="23195792#0" to="545476129#5"/>
    </person>
    <person id="125" depart="177.80" type="DEFAULT_PEDTYPE">
        <walk from="998769533" to="28709110#1"/>
    </person>
    <person id="126" depart="178.00" type="DEFAULT_PEDTYPE">
        <walk from="28719192" to="23195792#0"/>
    </person>
    <person id="127" depart="178.80" type="DEFAULT_PEDTYPE">
        <walk from="-23195499#2" to="1000553428"/>
    </person>
    <person id="128" depart="178.80" type="DEFAULT_PEDTYPE">
        <walk from="23195500#1" to="193099645#2"/>
    </person>
    <person id="129" depart="179.00" type="DEFAULT_PEDTYPE">
        <walk from="522833753" to="539419144"/>
    </person>
    <person id="130" depart="180.20" type="DEFAULT_PEDTYPE">
        <walk from="23195792#0" to="-23195496"/>
    </person>
    <person id="131" depart="180.20" type="DEFAULT_PEDTYPE">
        <walk from="996144772#1" to="997769913#1"/>
    </person>
    <person id="132" depart="180.80" type="DEFAULT_PEDTYPE">
        <walk from="23195340#1" to="-322548792#1"/>
    </person>
    <person id="133" depart="181.60" type="DEFAULT_PEDTYPE">
        <walk from="1000553429" to="-28710755#0"/>
    </person>
    <person id="134" depart="184.80" type="DEFAULT_PEDTYPE">
        <walk from="23195338" to="452767836#1"/>
    </person>
    <person id="135" depart="185.20" type="DEFAULT_PEDTYPE">
        <walk from="185096716#1" to="28999218"/>
    </person>
    <person id="136" depart="187.00" type="DEFAULT_PEDTYPE">
        <walk from="539419138" to="29033803"/>
    </person>
    <person id="137" depart="187.60" type="DEFAULT_PEDTYPE">
        <walk from="-184427426#3" to="539483270"/>
    </person>
    <person id="138" depart="188.20" type="DEFAULT_PEDTYPE">
        <walk from="647483360#0" to="192464424"/>
    </person>
    <person id="139" depart="190.00" type="DEFAULT_PEDTYPE">
        <walk from="-322548792#4" to="539483280#1"/>
    </person>
    <person id="140" depart="194.40" type="DEFAULT_PEDTYPE">
        <walk from="-322548792#1" to="-998769538#0"/>
    </person>
    <person id="141" depart="195.20" type="DEFAULT_PEDTYPE">
        <walk from="461160629" to="996364918"/>
    </person>
    <person id="142" depart="195.40" type="DEFAULT_PEDTYPE">
        <walk from="191959712#0" to="28710621#1"/>
    </person>
    <person id="143" depart="200.60" type="DEFAULT_PEDTYPE">
        <walk from="28998663" to="193099645#0"/>
    </person>
    <person id="144" depart="201.00" type="DEFAULT_PEDTYPE">
        <walk from="-522833746" to="655717644#1"/>
    </person>
    <person id="145" depart="202.40" type="DEFAULT_PEDTYPE">
        <walk from="539419146#1" to="28999595#1"/>
    </person>
    <person id="146" depart="205.40" type="DEFAULT_PEDTYPE">
        <walk from="23195339" to="184427434#0"/>
    </person>
    <person id="147" depart="207.80" type="DEFAULT_PEDTYPE">
        <walk from="23195750#0" to="995252087#1"/>
    </person>
    <person id="148" depart="208.80" type="DEFAULT_PEDTYPE">
        <walk from="522833724" to="28719125#0"/>
    </person>
    <person id="149" depart="209.80" type="DEFAULT_PEDTYPE">
        <walk from="655717640#1" to="998769533"/>
    </person>
    <person id="150" depart="212.20" type="DEFAULT_PEDTYPE">
        <walk from="123592772#1" to="23195794"/>
    </person>
    <person id="151" depart="212.20" type="DEFAULT_PEDTYPE">
        <walk from="996022767" to="997769913#1"/>
    </person>
    <person id="152" depart="212.80" type="DEFAULT_PEDTYPE">
        <walk from="539419137#1" to="544210702#0"/>
    </person>
    <person id="153" depart="215.00" type="DEFAULT_PEDTYPE">
        <walk from="998769533" to="193099645#0"/>
    </person>
    <person id="154" depart="215.20" type="DEFAULT_PEDTYPE">
        <walk from="28729524" to="-322548792#10"/>
    </person>
    <person id="155" depart="216.20" type="DEFAULT_PEDTYPE">
        <walk from="522833753" to="28719192"/>
    </person>
    <person id="156" depart="217.80" type="DEFAULT_PEDTYPE">
        <walk from="997944679#1" to="190606085"/>
    </person>
    <person id="157" depart="218.60" type="DEFAULT_PEDTYPE">
        <walk from="28710755#0" to="29033803"/>
    </person>
    <person id="158" depart="219.80" type="DEFAULT_PEDTYPE">
        <walk from="655717640#1" to="23195751#1"/>
    </person>
    <person id="159" depart="220.20" type="DEFAULT_PEDTYPE">
        <walk from="-28729752" to="192464426"/>
    </person>
    <person id="160" depart="221.00" type="DEFAULT_PEDTYPE">
        <walk from="190606088#1" to="23195500#2"/>
    </person>
    <person id="161" depart="222.40" type="DEFAULT_PEDTYPE">
        <walk from="1094949085#0" to="28710621#1"/>
    </person>
    <person id="162" depart="224.00" type="DEFAULT_PEDTYPE">
        <walk from="539419138" to="23195750#4"/>
    </person>
    <person id="163" depart="224.00" type="DEFAULT_PEDTYPE">
        <walk from="23683441#0" to="996144772#1"/>
    </person>
    <person id="164" depart="224.60" type="DEFAULT_PEDTYPE">
        <walk from="28998662#0" to="-522833746"/>
    </person>
    <person id="165" depart="225.00" type="DEFAULT_PEDTYPE">
        <walk from="190606077#2" to="23195795"/>
    </person>
    <person id="166" depart="226.00" type="DEFAULT_PEDTYPE">
        <walk from="997944688#1" to="-322548792#1"/>
    </person>
    <person id="167" depart="234.40" type="DEFAULT_PEDTYPE">
        <walk from="998769540#1" to="28708934#0"/>
    </person>
    <person id="168" depart="236.20" type="DEFAULT_PEDTYPE">
        <walk from="28710755#2" to="996022767"/>
    </person>
    <person id="169" depart="236.80" type="DEFAULT_PEDTYPE">
        <walk from="193099645#0" to="544210703#0"/>
    </person>
    <person id="170" depart="237.60" type="DEFAULT_PEDTYPE">
        <walk from="28998778#1" to="23195749#0"/>
    </person>
    <person id="171" depart="238.20" type="DEFAULT_PEDTYPE">
        <walk from="446644391#0" to="461160629"/>
    </person>
    <person id="172" depart="238.40" type="DEFAULT_PEDTYPE">
        <walk from="192464424" to="997944679#1"/>
    </person>
    <person id="173" depart="239.40" type="DEFAULT_PEDTYPE">
        <walk from="-322548792#5" to="23195501#1"/>
    </person>
    <person id="174" depart="240.20" type="DEFAULT_PEDTYPE">
        <walk from="23195804#0" to="-522833753"/>
    </person>
    <person id="175" depart="240.20" type="DEFAULT_PEDTYPE">
        <walk from="23195503" to="23195501#1"/>
    </person>
    <person id="176" depart="241.00" type="DEFAULT_PEDTYPE">
        <walk from="23195751#1" to="998769532"/>
    </person>
    <person id="177" depart="243.80" type="DEFAULT_PEDTYPE">
        <walk from="23195744" to="-322548792#10"/>
    </person>
    <person id="178" depart="244.00" type="DEFAULT_PEDTYPE">
        <walk from="647789894" to="23195804#0"/>
    </person>
    <person id="179" depart="244.40" type="DEFAULT_PEDTYPE">
        <walk from="29033732" to="998769533"/>
    </person>
    <person id="180" depart="244.60" type="DEFAULT_PEDTYPE">
        <walk from="539419138" to="23195500#2"/>
    </person>
    <person id="181" depart="245.60" type="DEFAULT_PEDTYPE">
        <walk from="587561458" to="23683441#0"/>
    </person>
    <person id="182" depart="246.80" type="DEFAULT_PEDTYPE">
        <walk from="998769537" to="997944679#1"/>
    </person>
    <person id="183" depart="248.20" type="DEFAULT_PEDTYPE">
        <walk from="23195798" to="23195794"/>
    </person>
    <person id="184" depart="248.60" type="DEFAULT_PEDTYPE">
        <walk from="23195804#0" to="995252090"/>
    </person>
    <person id="185" depart="250.00" type="DEFAULT_PEDTYPE">
        <walk from="-28719125#0" to="-116632638#2"/>
    </person>
    <person id="186" depart="252.80" type="DEFAULT_PEDTYPE">
        <walk from="-545496366#1" to="-522833746"/>
    </person>
    <person id="187" depart="254.20" type="DEFAULT_PEDTYPE">
        <walk from="-116632638#0" to="998769540#1"/>
    </person>
    <person id="188" depart="254.60" type="DEFAULT_PEDTYPE">
        <walk from="28710751#0" to="23195330#1"/>
    </person>
    <person id="189" depart="254.80" type="DEFAULT_PEDTYPE">
        <walk from="191871225#1" to="192464423#1"/>
    </person>
    <person id="190" depart="263.80" type="DEFAULT_PEDTYPE">
        <walk from="28719327" to="474164620#0"/>
    </person>
    <person id="191" depart="265.20" type="DEFAULT_PEDTYPE">
        <walk from="606454892" to="23195744"/>
    </person>
    <person id="192" depart="265.80" type="DEFAULT_PEDTYPE">
        <walk from="998769533" to="996022767"/>
    </person>
    <person id="193" depart="266.20" type="DEFAULT_PEDTYPE">
        <walk from="28998778#1" to="23195752#2"/>
    </person>
    <person id="194" depart="267.20" type="DEFAULT_PEDTYPE">
        <walk from="-23195751#1" to="23195804#0"/>
    </person>
    <person id="195" depart="267.40" type="DEFAULT_PEDTYPE">
        <walk from="23195328#1" to="190606077#5"/>
    </person>
    <person id="196" depart="267.80" type="DEFAULT_PEDTYPE">
        <walk from="606454892" to="191959712#0"/>
    </person>
    <person id="197" depart="270.00" type="DEFAULT_PEDTYPE">
        <walk from="28998778#1" to="28729036"/>
    </person>
    <person id="198" depart="270.60" type="DEFAULT_PEDTYPE">
        <walk from="322548792#6" to="539483276"/>
    </person>
    <person id="199" depart="271.80" type="DEFAULT_PEDTYPE">
        <walk from="993884076#1" to="29033731"/>
    </person>
    <person id="200" depart="272.60" type="DEFAULT_PEDTYPE">
        <walk from="28710410#2" to="23195500#2"/>
    </person>
    <person id="201" depart="274.60" type="DEFAULT_PEDTYPE">
        <walk from="23195340#1" to="28718918#1"/>
    </person>
    <person id="202" depart="277.80" type="DEFAULT_PEDTYPE">
        <walk from="28710621#0" to="-185271769"/>
    </person>
    <person id="203" depart="278.40" type="DEFAULT_PEDTYPE">
        <walk from="185096716#1" to="29072594"/>
    </person>
    <person id="204" depart="280.20" type="DEFAULT_PEDTYPE">
        <walk from="-28710790#1" to="28708934#1"/>
    </person>
    <person id="205" depart="280.40" type="DEFAULT_PEDTYPE">
        <walk from="191979127#3" to="522833752#1"/>
    </person>
    <person id="206" depart="281.40" type="DEFAULT_PEDTYPE">
        <walk from="29033732" to="192464423#1"/>
    </person>
    <person id="207" depart="282.40" type="DEFAULT_PEDTYPE">
        <walk from="1094949083" to="29033803"/>
    </person>
    <person id="208" depart="283.40" type="DEFAULT_PEDTYPE">
        <walk from="123592772#2" to="64973455#0"/>
    </person>
    <person id="209" depart="284.00" type="DEFAULT_PEDTYPE">
        <walk from="192464423#1" to="647483360#0"/>
    </person>
    <person id="210" depart="284.80" type="DEFAULT_PEDTYPE">
        <walk from="-191979123" to="-322548792#4"/>
    </person>
    <person id="211" depart="285.20" type="DEFAULT_PEDTYPE">
        <walk from="-184427426#1" to="190606088#0"/>
    </person>
    <person id="212" depart="285.80" type="DEFAULT_PEDTYPE">
        <walk from="190606085" to="998769529"/>
    </person>
    <person id="213" depart="287.40" type="DEFAULT_PEDTYPE">
        <walk from="23195500#1" to="544210702#1"/>
    </person>
    <person id="214" depart="288.00" type="DEFAULT_PEDTYPE">
        <walk from="-191979122" to="993984189"/>
    </person>
    <person id="215" depart="288.20" type="DEFAULT_PEDTYPE">
        <walk from="23683441#0" to="23195340#0"/>
    </person>
    <person id="216" depart="288.80" type="DEFAULT_PEDTYPE">
        <walk from="-28718922#1" to="606454892"/>
    </person>
    <person id="217" depart="290.20" type="DEFAULT_PEDTYPE">
        <walk from="1094949083" to="23195799#1"/>
    </person>
    <person id="218" depart="290.60" type="DEFAULT_PEDTYPE">
        <walk from="996144773" to="28710934"/>
    </person>
    <person id="219" depart="290.80" type="DEFAULT_PEDTYPE">
        <walk from="190606088#0" to="-191959706#0"/>
    </person>
    <person id="220" depart="291.20" type="DEFAULT_PEDTYPE">
        <walk from="192464426" to="993930088"/>
    </person>
    <person id="221" depart="291.60" type="DEFAULT_PEDTYPE">
        <walk from="193099645#2" to="539483280#1"/>
    </person>
    <person id="222" depart="293.00" type="DEFAULT_PEDTYPE">
        <walk from="647483360#0" to="23195339"/>
    </person>
    <person id="223" depart="294.60" type="DEFAULT_PEDTYPE">
        <walk from="993884076#1" to="-116632638#2"/>
    </person>
    <person id="224" depart="295.40" type="DEFAULT_PEDTYPE">
        <walk from="1000553426#0" to="-28718922#1"/>
    </person>
    <person id="225" depart="296.60" type="DEFAULT_PEDTYPE">
        <walk from="193099645#2" to="647789892"/>
    </person>
    <person id="226" depart="300.00" type="DEFAULT_PEDTYPE">
        <walk from="28998778#2" to="647483359#1"/>
    </person>
    <person id="227" depart="302.00" type="DEFAULT_PEDTYPE">
        <walk from="997944679#1" to="184427434#0"/>
    </person>
    <person id="228" depart="302.80" type="DEFAULT_PEDTYPE">
        <walk from="1000553429" to="995252087#1"/>
    </person>
    <person id="229" depart="304.80" type="DEFAULT_PEDTYPE">
        <walk from="429515619#2" to="1002422788"/>
    </person>
    <person id="230" depart="310.00" type="DEFAULT_PEDTYPE">
        <walk from="190606078#1" to="-116632638#2"/>
    </person>
    <person id="231" depart="310.20" type="DEFAULT_PEDTYPE">
        <walk from="23195794" to="23195500#2"/>
    </person>
    <person id="232" depart="312.00" type="DEFAULT_PEDTYPE">
        <walk from="23195734" to="655717643"/>
    </person>
    <person id="233" depart="316.60" type="DEFAULT_PEDTYPE">
        <walk from="23195804#0" to="28729034#0"/>
    </person>
    <person id="234" depart="317.00" type="DEFAULT_PEDTYPE">
        <walk from="993984189" to="322548792#1"/>
    </person>
    <person id="235" depart="317.80" type="DEFAULT_PEDTYPE">