<?xml version="1.0" encoding="UTF-8"?>

<!-- generated on sab 24 set 2022, 02:40:07 by Eclipse SUMO netedit Version 1.8.0
<configuration xmlns:xsi="http://www.w3.org/2001/XMLSchema-instance" xsi:noNamespaceSchemaLocation="http://sumo.dlr.de/xsd/netconvertConfiguration.xsd">

    <input>
        <sumo-net-file value="/home/toore/Scrivania/Tirocinio/Scanzano.net.xml"/>
    </input>

    <output>
        <output-file value="/home/toore/Scrivania/Tirocinio/Scanzano.net.xml"/>
    </output>

    <processing>
        <geometry.min-radius.fix.railways value="false"/>
        <geometry.max-grade.fix value="false"/>
        <offset.disable-normalization value="true"/>
        <lefthand value="false"/>
    </processing>

    <junctions>
        <no-turnarounds value="true"/>
        <junctions.corner-detail value="5"/>
        <junctions.limit-turn-speed value="5.5"/>
        <rectangular-lane-cut value="false"/>
    </junctions>

    <pedestrian>
        <walkingareas value="false"/>
    </pedestrian>

    <netedit>
        <route-files value="/home/toore/Scrivania/Tirocinio/Scanz.rou.xml"/>
    </netedit>

    <report>
        <aggregate-warnings value="5"/>
    </report>

</configuration>
-->

<net version="1.6" junctionCornerDetail="5" limitTurnSpeed="5.50" xmlns:xsi="http://www.w3.org/2001/XMLSchema-instance" xsi:noNamespaceSchemaLocation="http://sumo.dlr.de/xsd/net_file.xsd">

    <location netOffset="-641852.48,-4454288.24" convBoundary="0.00,0.00,3192.25,3962.95" origBoundary="16.668097,40.226679,16.705716,40.262166" projParameter="+proj=utm +zone=33 +ellps=WGS84 +datum=WGS84 +units=m +no_defs"/>

    <type id="highway.bridleway" priority="1" numLanes="1" speed="2.78" allow="pedestrian" oneway="1" width="2.00"/>
    <type id="highway.bus_guideway" priority="1" numLanes="1" speed="27.78" allow="bus" oneway="1"/>
    <type id="highway.cycleway" priority="1" numLanes="1" speed="8.33" allow="bicycle" oneway="1" width="1.00"/>
    <type id="highway.footway" priority="1" numLanes="1" speed="2.78" allow="pedestrian" oneway="1" width="2.00"/>
    <type id="highway.ford" priority="1" numLanes="1" speed="2.78" allow="army" oneway="1"/>
    <type id="highway.living_street" priority="2" numLanes="1" speed="2.78" disallow="tram rail_urban rail rail_electric rail_fast ship" oneway="1"/>
    <type id="highway.motorway" priority="14" numLanes="2" speed="39.44" allow="private emergency authority army vip passenger hov taxi bus coach delivery truck trailer motorcycle evehicle custom1 custom2" oneway="1"/>
    <type id="highway.motorway_link" priority="9" numLanes="1" speed="22.22" allow="private emergency authority army vip passenger hov taxi bus coach delivery truck trailer motorcycle evehicle custom1 custom2" oneway="1"/>
    <type id="highway.path" priority="1" numLanes="1" speed="2.78" allow="pedestrian bicycle" oneway="1" width="2.00"/>
    <type id="highway.pedestrian" priority="1" numLanes="1" speed="2.78" allow="pedestrian" oneway="1" width="2.00"/>
    <type id="highway.primary" priority="12" numLanes="2" speed="27.78" disallow="tram rail_urban rail rail_electric rail_fast ship" oneway="1"/>
    <type id="highway.primary_link" priority="7" numLanes="1" speed="22.22" disallow="tram rail_urban rail rail_electric rail_fast ship" oneway="1"/>
    <type id="highway.raceway" priority="15" numLanes="2" speed="83.33" allow="vip" oneway="1"/>
    <type id="highway.residential" priority="3" numLanes="1" speed="13.89" disallow="tram rail_urban rail rail_electric rail_fast ship" oneway="1"/>
    <type id="highway.secondary" priority="11" numLanes="1" speed="27.78" disallow="tram rail_urban rail rail_electric rail_fast ship" oneway="1"/>
    <type id="highway.secondary_link" priority="6" numLanes="1" speed="22.22" disallow="tram rail_urban rail rail_electric rail_fast ship" oneway="1"/>
    <type id="highway.service" priority="1" numLanes="1" speed="5.56" allow="pedestrian delivery bicycle" oneway="1"/>
    <type id="highway.stairs" priority="1" numLanes="1" speed="1.39" allow="pedestrian" oneway="1" width="2.00"/>
    <type id="highway.step" priority="1" numLanes="1" speed="1.39" allow="pedestrian" oneway="1" width="2.00"/>
    <type id="highway.steps" priority="1" numLanes="1" speed="1.39" allow="pedestrian" oneway="1" width="2.00"/>
    <type id="highway.tertiary" priority="10" numLanes="1" speed="22.22" disallow="tram rail_urban rail rail_electric rail_fast ship" oneway="1"/>
    <type id="highway.tertiary_link" priority="5" numLanes="1" speed="22.22" disallow="tram rail_urban rail rail_electric rail_fast ship" oneway="1"/>
    <type id="highway.track" priority="1" numLanes="1" speed="5.56" allow="pedestrian motorcycle moped bicycle" oneway="1"/>
    <type id="highway.trunk" priority="13" numLanes="2" speed="27.78" disallow="pedestrian bicycle tram rail_urban rail rail_electric rail_fast ship" oneway="1"/>
    <type id="highway.trunk_link" priority="8" numLanes="1" speed="22.22" disallow="pedestrian bicycle tram rail_urban rail rail_electric rail_fast ship" oneway="1"/>
    <type id="highway.unclassified" priority="4" numLanes="1" speed="13.89" disallow="tram rail_urban rail rail_electric rail_fast ship" oneway="1"/>
    <type id="highway.unsurfaced" priority="1" numLanes="1" speed="8.33" disallow="tram rail_urban rail rail_electric rail_fast ship" oneway="1"/>
    <type id="railway.highspeed" priority="21" numLanes="1" speed="69.44" allow="rail_fast" oneway="1"/>
    <type id="railway.light_rail" priority="19" numLanes="1" speed="27.78" allow="rail_urban" oneway="1"/>
    <type id="railway.preserved" priority="16" numLanes="1" speed="27.78" allow="rail" oneway="1"/>
    <type id="railway.rail" priority="20" numLanes="1" speed="44.44" allow="rail" oneway="1"/>
    <type id="railway.subway" priority="18" numLanes="1" speed="27.78" allow="rail_urban" oneway="1"/>
    <type id="railway.tram" priority="17" numLanes="1" speed="13.89" allow="tram" oneway="1"/>

    <edge id=":10047979044_0" function="internal">
        <lane id=":10047979044_0_0" index="0" allow="pedestrian delivery bicycle" speed="3.65" length="4.67" shape="3067.90,2817.13 3069.34,2817.18 3070.10,2817.65 3070.19,2818.54 3069.59,2819.85"/>
    </edge>
    <edge id=":10047979045_0" function="internal">
        <lane id=":10047979045_0_0" index="0" disallow="tram rail_urban rail rail_electric rail_fast ship" speed="13.89" length="9.29" shape="3050.05,2837.22 3047.99,2835.38 3046.57,2834.14 3045.10,2832.96 3042.88,2831.32"/>
    </edge>
    <edge id=":10047979045_1" function="internal">
        <lane id=":10047979045_1_0" index="0" allow="pedestrian delivery bicycle" speed="6.69" length="5.31" shape="3050.05,2837.22 3047.87,2834.65 3047.41,2832.76"/>
    </edge>
    <edge id=":10047979045_2" function="internal">
        <lane id=":10047979045_2_0" index="0" disallow="tram rail_urban rail rail_electric rail_fast ship" speed="3.65" length="2.34" shape="3050.05,2837.22 3049.68,2835.82 3049.91,2834.96"/>
    </edge>
    <edge id=":10047979045_9" function="internal">
        <lane id=":10047979045_9_0" index="0" allow="pedestrian delivery bicycle" speed="6.69" length="6.42" shape="3047.41,2832.76 3047.28,2832.22 3048.27,2829.93 3050.85,2827.76"/>
    </edge>
    <edge id=":10047979045_10" function="internal">
        <lane id=":10047979045_10_0" index="0" disallow="tram rail_urban rail rail_electric rail_fast ship" speed="3.65" length="2.34" shape="3049.91,2834.96 3050.74,2834.62 3052.17,2834.82"/>
    </edge>
    <edge id=":10047979045_3" function="internal">
        <lane id=":10047979045_3_0" index="0" allow="pedestrian delivery bicycle" speed="4.79" length="5.39" shape="3052.54,2830.48 3051.36,2831.47 3050.90,2832.53 3051.17,2833.64 3052.17,2834.82"/>
    </edge>
    <edge id=":10047979045_4" function="internal">
        <lane id=":10047979045_4_0" index="0" allow="pedestrian delivery bicycle" speed="8.11" length="10.30" shape="3052.54,2830.48 3049.75,2831.89 3047.21,2832.50 3044.92,2832.32 3042.88,2831.32"/>
    </edge>
    <edge id=":10047979045_5" function="internal">
        <lane id=":10047979045_5_0" index="0" allow="pedestrian delivery bicycle" speed="3.65" length="4.67" shape="3052.54,2830.48 3051.10,2830.43 3050.33,2829.97 3050.25,2829.07 3050.85,2827.76"/>
    </edge>
    <edge id=":10047979045_6" function="internal">
        <lane id=":10047979045_6_0" index="0" allow="pedestrian delivery bicycle" speed="6.57" length="6.51" shape="3044.76,2828.74 3045.93,2829.24 3047.33,2829.25 3048.97,2828.76 3050.85,2827.76"/>
    </edge>
    <edge id=":10047979045_7" function="internal">
        <lane id=":10047979045_7_0" index="0" disallow="tram rail_urban rail rail_electric rail_fast ship" speed="13.89" length="9.59" shape="3044.76,2828.74 3047.05,2830.43 3048.58,2831.64 3050.05,2832.93 3052.17,2834.82"/>
    </edge>
    <edge id=":10047979045_8" function="internal">
        <lane id=":10047979045_8_0" index="0" disallow="tram rail_urban rail rail_electric rail_fast ship" speed="3.65" length="2.34" shape="3044.76,2828.74 3045.26,2830.09 3045.12,2830.97"/>
    </edge>
    <edge id=":10047979045_11" function="internal">
        <lane id=":10047979045_11_0" index="0" disallow="tram rail_urban rail rail_electric rail_fast ship" speed="3.65" length="2.34" shape="3045.12,2830.97 3044.32,2831.38 3042.88,2831.32"/>
    </edge>
    <edge id=":1021231498_0" function="internal">
        <lane id=":1021231498_0_0" index="0" allow="rail rail_electric rail_fast" speed="44.44" length="10.02" shape="2724.98,2143.35 2720.03,2134.63"/>
    </edge>
    <edge id=":1021231498_1" function="internal">
        <lane id=":1021231498_1_0" index="0" disallow="tram rail_urban rail rail_electric rail_fast ship" speed="13.89" length="7.12" shape="2726.17,2138.22 2724.46,2139.46 2723.32,2140.34 2722.22,2141.29 2720.65,2142.70"/>
    </edge>
    <edge id=":1021231498_2" function="internal">
        <lane id=":1021231498_2_0" index="0" disallow="tram rail_urban rail rail_electric rail_fast ship" speed="13.89" length="7.49" shape="2718.50,2140.34 2720.15,2138.85 2721.30,2137.85 2722.50,2136.92 2724.30,2135.62"/>
    </edge>
    <edge id=":1079861571_0" function="internal">
        <lane id=":1079861571_0_0" index="0" disallow="tram rail_urban rail rail_electric rail_fast ship" speed="3.65" length="4.67" shape="2344.83,1823.01 2346.17,1823.53 2346.73,1824.23 2346.51,1825.10 2345.51,1826.13"/>
    </edge>
    <edge id=":1079861772_0" function="internal">
        <lane id=":1079861772_0_0" index="0" disallow="tram rail_urban rail rail_electric rail_fast ship" speed="6.49" length="9.03" shape="2514.51,2473.14 2513.33,2470.96 2511.74,2469.69 2509.74,2469.32 2507.32,2469.86"/>
    </edge>
    <edge id=":1079861772_1" function="internal">
        <lane id=":1079861772_1_0" index="0" disallow="tram rail_urban rail rail_electric rail_fast ship" speed="8.24" length="14.11" shape="2514.51,2473.14 2513.67,2469.34 2514.15,2466.12 2515.97,2463.48 2519.11,2461.40"/>
    </edge>
    <edge id=":1079861772_2" function="internal">
        <lane id=":1079861772_2_0" index="0" disallow="tram rail_urban rail rail_electric rail_fast ship" speed="3.65" length="4.67" shape="2514.51,2473.14 2514.85,2471.74 2515.46,2471.08 2516.35,2471.18 2517.51,2472.03"/>
    </edge>
    <edge id=":1079861772_3" function="internal">
        <lane id=":1079861772_3_0" index="0" disallow="tram rail_urban rail rail_electric rail_fast ship" speed="6.79" length="9.27" shape="2520.47,2464.30 2518.43,2465.65 2517.25,2467.39 2516.95,2469.52 2517.51,2472.03"/>
    </edge>
    <edge id=":1079861772_4" function="internal">
        <lane id=":1079861772_4_0" index="0" disallow="tram rail_urban rail rail_electric rail_fast ship" speed="22.22" length="14.28" shape="2520.47,2464.30 2507.32,2469.86"/>
    </edge>
    <edge id=":1079861772_5" function="internal">
        <lane id=":1079861772_5_0" index="0" disallow="tram rail_urban rail rail_electric rail_fast ship" speed="3.65" length="2.34" shape="2520.47,2464.30 2519.04,2464.08 2518.34,2463.53"/>
    </edge>
    <edge id=":1079861772_12" function="internal">
        <lane id=":1079861772_12_0" index="0" disallow="tram rail_urban rail rail_electric rail_fast ship" speed="3.65" length="2.34" shape="2518.34,2463.53 2518.36,2462.64 2519.11,2461.40"/>
    </edge>
    <edge id=":1079861772_6" function="internal">
        <lane id=":1079861772_6_0" index="0" disallow="tram rail_urban rail rail_electric rail_fast ship" speed="6.67" length="9.96" shape="2510.80,2459.02 2512.12,2461.15 2513.94,2462.26 2516.27,2462.34 2519.11,2461.40"/>
    </edge>
    <edge id=":1079861772_7" function="internal">
        <lane id=":1079861772_7_0" index="0" disallow="tram rail_urban rail rail_electric rail_fast ship" speed="13.89" length="14.65" shape="2510.80,2459.02 2512.39,2462.35 2514.20,2465.51 2516.00,2468.67 2517.51,2472.03"/>
    </edge>
    <edge id=":1079861772_8" function="internal">
        <lane id=":1079861772_8_0" index="0" disallow="tram rail_urban rail rail_electric rail_fast ship" speed="7.64" length="13.00" shape="2510.80,2459.02 2511.82,2462.80 2511.58,2465.86 2510.08,2468.22 2507.32,2469.86"/>
    </edge>
    <edge id=":1079861772_9" function="internal">
        <lane id=":1079861772_9_0" index="0" disallow="tram rail_urban rail rail_electric rail_fast ship" speed="22.22" length="14.04" shape="2506.18,2466.87 2519.11,2461.40"/>
    </edge>
    <edge id=":1079861772_10" function="internal">
        <lane id=":1079861772_10_0" index="0" disallow="tram rail_urban rail rail_electric rail_fast ship" speed="7.98" length="5.55" shape="2506.18,2466.87 2509.99,2466.02 2511.61,2466.31"/>
    </edge>
    <edge id=":1079861772_11" function="internal">
        <lane id=":1079861772_11_0" index="0" disallow="tram rail_urban rail rail_electric rail_fast ship" speed="3.65" length="2.34" shape="2506.18,2466.87 2507.59,2467.19 2508.25,2467.80"/>
    </edge>
    <edge id=":1079861772_13" function="internal">
        <lane id=":1079861772_13_0" index="0" disallow="tram rail_urban rail rail_electric rail_fast ship" speed="7.98" length="8.68" shape="2511.61,2466.31 2513.15,2466.59 2515.66,2468.60 2517.51,2472.03"/>
    </edge>
    <edge id=":1079861772_14" function="internal">
        <lane id=":1079861772_14_0" index="0" disallow="tram rail_urban rail rail_electric rail_fast ship" speed="3.65" length="2.34" shape="2508.25,2467.80 2508.16,2468.69 2507.32,2469.86"/>
    </edge>
    <edge id=":1079862414_0" function="internal">
        <lane id=":1079862414_0_0" index="0" disallow="tram rail_urban rail rail_electric rail_fast ship" speed="13.89" length="10.62" shape="2743.37,2243.63 2742.26,2246.48 2741.41,2248.56 2740.45,2250.59 2739.04,2253.31"/>
    </edge>
    <edge id=":1079862414_1" function="internal">
        <lane id=":1079862414_1_0" index="0" disallow="tram rail_urban rail rail_electric rail_fast ship" speed="10.25" length="5.42" shape="2743.37,2243.63 2741.58,2246.55 2740.01,2247.77"/>
    </edge>
    <edge id=":1079862414_2" function="internal">
        <lane id=":1079862414_2_0" index="0" disallow="tram rail_urban rail rail_electric rail_fast ship" speed="3.65" length="2.34" shape="2743.37,2243.63 2742.19,2244.46 2741.30,2244.54"/>
    </edge>
    <edge id=":1079862414_9" function="internal">
        <lane id=":1079862414_9_0" index="0" disallow="tram rail_urban rail rail_electric rail_fast ship" speed="10.25" length="10.59" shape="2740.01,2247.77 2738.77,2248.74 2734.93,2250.19 2730.07,2250.91"/>
    </edge>
    <edge id=":1079862414_10" function="internal">
        <lane id=":1079862414_10_0" index="0" disallow="tram rail_urban rail rail_electric rail_fast ship" speed="3.65" length="2.34" shape="2741.30,2244.54 2740.70,2243.88 2740.38,2242.47"/>
    </edge>
    <edge id=":1079862414_3" function="internal">
        <lane id=":1079862414_3_0" index="0" disallow="tram rail_urban rail rail_electric rail_fast ship" speed="9.07" length="12.38" shape="2729.86,2247.71 2733.78,2247.17 2736.85,2246.12 2739.05,2244.55 2740.38,2242.47"/>
    </edge>
    <edge id=":1079862414_4" function="internal">
        <lane id=":1079862414_4_0" index="0" disallow="tram rail_urban rail rail_electric rail_fast ship" speed="6.72" length="13.82" shape="2729.86,2247.71 2735.16,2247.76 2738.45,2248.70 2739.74,2250.55 2739.04,2253.31"/>
    </edge>
    <edge id=":1079862414_5" function="internal">
        <lane id=":1079862414_5_0" index="0" disallow="tram rail_urban rail rail_electric rail_fast ship" speed="3.65" length="4.67" shape="2729.86,2247.71 2731.11,2248.43 2731.56,2249.21 2731.21,2250.03 2730.07,2250.91"/>
    </edge>
    <edge id=":1079862414_6" function="internal">
        <lane id=":1079862414_6_0" index="0" disallow="tram rail_urban rail rail_electric rail_fast ship" speed="4.90" length="6.66" shape="2736.21,2251.80 2736.10,2251.24 2735.03,2250.91 2733.02,2250.80 2730.07,2250.91"/>
    </edge>
    <edge id=":1079862414_7" function="internal">
        <lane id=":1079862414_7_0" index="0" disallow="tram rail_urban rail rail_electric rail_fast ship" speed="13.89" length="10.23" shape="2736.21,2251.80 2737.60,2249.14 2738.50,2247.23 2739.30,2245.27 2740.38,2242.47"/>
    </edge>
    <edge id=":1079862414_8" function="internal">
        <lane id=":1079862414_8_0" index="0" disallow="tram rail_urban rail rail_electric rail_fast ship" speed="3.65" length="2.34" shape="2736.21,2251.80 2737.48,2251.12 2738.38,2251.14"/>
    </edge>
    <edge id=":1079862414_11" function="internal">
        <lane id=":1079862414_11_0" index="0" disallow="tram rail_urban rail rail_electric rail_fast ship" speed="3.65" length="2.34" shape="2738.38,2251.14 2738.89,2251.87 2739.04,2253.31"/>
    </edge>
    <edge id=":1079878774_0" function="internal">
        <lane id=":1079878774_0_0" index="0" allow="pedestrian delivery bicycle" speed="5.09" length="4.95" shape="2260.77,2772.30 2259.75,2771.42 2258.68,2771.07 2257.57,2771.23 2256.41,2771.92"/>
    </edge>
    <edge id=":1079878774_1" function="internal">
        <lane id=":1079878774_1_0" index="0" disallow="tram rail_urban rail rail_electric rail_fast ship" speed="22.22" length="9.26" shape="2260.77,2772.30 2258.96,2770.23 2257.75,2768.79 2256.60,2767.30 2254.98,2765.09"/>
    </edge>
    <edge id=":1079878774_2" function="internal">
        <lane id=":1079878774_2_0" index="0" disallow="tram rail_urban rail rail_electric rail_fast ship" speed="3.65" length="2.34" shape="2260.77,2772.30 2260.58,2770.87 2260.92,2770.04"/>
    </edge>
    <edge id=":1079878774_9" function="internal">
        <lane id=":1079878774_9_0" index="0" disallow="tram rail_urban rail rail_electric rail_fast ship" speed="3.65" length="2.34" shape="2260.92,2770.04 2261.78,2769.81 2263.17,2770.18"/>
    </edge>
    <edge id=":1079878774_3" function="internal">
        <lane id=":1079878774_3_0" index="0" disallow="tram rail_urban rail rail_electric rail_fast ship" speed="22.22" length="8.97" shape="2257.56,2763.20 2259.14,2765.34 2260.25,2766.78 2261.42,2768.18 2263.17,2770.18"/>
    </edge>
    <edge id=":1079878774_4" function="internal">
        <lane id=":1079878774_4_0" index="0" allow="pedestrian delivery bicycle" speed="6.90" length="4.97" shape="2257.56,2763.20 2258.84,2765.58 2259.07,2767.83"/>
    </edge>
    <edge id=":1079878774_5" function="internal">
        <lane id=":1079878774_5_0" index="0" disallow="tram rail_urban rail rail_electric rail_fast ship" speed="3.65" length="2.34" shape="2257.56,2763.20 2257.62,2764.64 2257.21,2765.43"/>
    </edge>
    <edge id=":1079878774_10" function="internal">
        <lane id=":1079878774_10_0" index="0" allow="pedestrian delivery bicycle" speed="6.90" length="4.97" shape="2259.07,2767.83 2258.26,2769.95 2256.41,2771.92"/>
    </edge>
    <edge id=":1079878774_11" function="internal">
        <lane id=":1079878774_11_0" index="0" disallow="tram rail_urban rail rail_electric rail_fast ship" speed="3.65" length="2.34" shape="2257.21,2765.43 2256.33,2765.58 2254.98,2765.09"/>
    </edge>
    <edge id=":1079878774_6" function="internal">
        <lane id=":1079878774_6_0" index="0" allow="pedestrian delivery bicycle" speed="5.09" length="4.95" shape="2254.40,2769.43 2255.33,2768.44 2255.73,2767.39 2255.61,2766.27 2254.98,2765.09"/>
    </edge>
    <edge id=":1079878774_7" function="internal">
        <lane id=":1079878774_7_0" index="0" allow="pedestrian delivery bicycle" speed="6.90" length="9.94" shape="2254.40,2769.43 2256.73,2768.05 2258.97,2767.71 2261.12,2768.42 2263.17,2770.18"/>
    </edge>
    <edge id=":1079878774_8" function="internal">
        <lane id=":1079878774_8_0" index="0" allow="pedestrian delivery bicycle" speed="3.65" length="4.67" shape="2254.40,2769.43 2255.84,2769.30 2256.65,2769.67 2256.84,2770.55 2256.41,2771.92"/>
    </edge>
    <edge id=":1079878889_0" function="internal">
        <lane id=":1079878889_0_0" index="0" disallow="tram rail_urban rail rail_electric rail_fast ship" speed="22.22" length="18.48" shape="2372.67,2892.07 2369.44,2889.25 2365.90,2885.80 2362.45,2882.24 2359.52,2879.09"/>
    </edge>
    <edge id=":1079878889_1" function="internal">
        <lane id=":1079878889_1_0" index="0" disallow="tram rail_urban rail rail_electric rail_fast ship" speed="13.32" length="6.12" shape="2372.67,2892.07 2370.51,2889.55 2369.38,2886.98"/>
    </edge>
    <edge id=":1079878889_2" function="internal">
        <lane id=":1079878889_2_0" index="0" disallow="tram rail_urban rail rail_electric rail_fast ship" speed="3.65" length="2.34" shape="2372.67,2892.07 2372.22,2890.70 2372.41,2889.82"/>
    </edge>
    <edge id=":1079878889_9" function="internal">
        <lane id=":1079878889_9_0" index="0" disallow="tram rail_urban rail rail_electric rail_fast ship" speed="13.32" length="12.53" shape="2369.38,2886.98 2368.87,2885.81 2367.76,2880.87 2367.17,2874.71"/>
    </edge>
    <edge id=":1079878889_10" function="internal">
        <lane id=":1079878889_10_0" index="0" disallow="tram rail_urban rail rail_electric rail_fast ship" speed="3.65" length="2.34" shape="2372.41,2889.82 2373.22,2889.44 2374.65,2889.56"/>
    </edge>
    <edge id=":1079878889_3" function="internal">
        <lane id=":1079878889_3_0" index="0" disallow="tram rail_urban rail rail_electric rail_fast ship" speed="12.34" length="15.94" shape="2370.37,2874.56 2370.85,2880.02 2371.73,2884.34 2372.99,2887.52 2374.65,2889.56"/>
    </edge>
    <edge id=":1079878889_4" function="internal">
        <lane id=":1079878889_4_0" index="0" disallow="tram rail_urban rail rail_electric rail_fast ship" speed="7.51" length="20.62" shape="2370.37,2874.56 2370.00,2881.29 2368.07,2884.29 2364.57,2883.56 2359.52,2879.09"/>
    </edge>
    <edge id=":1079878889_5" function="internal">
        <lane id=":1079878889_5_0" index="0" disallow="tram rail_urban rail rail_electric rail_fast ship" speed="3.65" length="4.67" shape="2370.37,2874.56 2369.62,2875.79 2368.84,2876.23 2368.03,2875.87 2367.17,2874.71"/>
    </edge>
    <edge id=":1079878889_6" function="internal">
        <lane id=":1079878889_6_0" index="0" disallow="tram rail_urban rail rail_electric rail_fast ship" speed="5.46" length="10.07" shape="2361.88,2876.93 2364.34,2879.10 2366.05,2879.46 2366.99,2878.00 2367.17,2874.71"/>
    </edge>
    <edge id=":1079878889_7" function="internal">
        <lane id=":1079878889_7_0" index="0" disallow="tram rail_urban rail rail_electric rail_fast ship" speed="22.22" length="17.98" shape="2361.88,2876.93 2364.75,2880.01 2368.06,2883.46 2371.48,2886.79 2374.65,2889.56"/>
    </edge>
    <edge id=":1079878889_8" function="internal">
        <lane id=":1079878889_8_0" index="0" disallow="tram rail_urban rail rail_electric rail_fast ship" speed="3.65" length="2.34" shape="2361.88,2876.93 2362.10,2878.35 2361.78,2879.19"/>
    </edge>
    <edge id=":1079878889_11" function="internal">
        <lane id=":1079878889_11_0" index="0" disallow="tram rail_urban rail rail_electric rail_fast ship" speed="3.65" length="2.34" shape="2361.78,2879.19 2360.92,2879.43 2359.52,2879.09"/>
    </edge>
    <edge id=":1947587842_0" function="internal">
        <lane id=":1947587842_0_0" index="0" disallow="tram rail_urban rail rail_electric rail_fast ship" speed="3.65" length="4.67" shape="2107.67,975.96 2108.01,974.56 2108.62,973.91 2109.51,974.01 2110.67,974.86"/>
    </edge>
    <edge id=":1956884663_0" function="internal">
        <lane id=":1956884663_0_0" index="0" disallow="tram rail_urban rail rail_electric rail_fast ship" speed="3.65" length="4.67" shape="2491.96,2194.12 2492.34,2192.73 2492.97,2192.09 2493.86,2192.22 2495.00,2193.10"/>
    </edge>
    <edge id=":1956884673_0" function="internal">
        <lane id=":1956884673_0_0" index="0" disallow="tram rail_urban rail rail_electric rail_fast ship" speed="9.56" length="6.90" shape="2679.72,2401.87 2679.61,2403.85 2679.95,2405.20 2680.71,2406.46 2681.85,2408.17"/>
    </edge>
    <edge id=":1956884673_1" function="internal">
        <lane id=":1956884673_1_0" index="0" disallow="tram rail_urban rail rail_electric rail_fast ship" speed="9.68" length="8.09" shape="2671.85,2407.59 2673.79,2406.15 2675.14,2405.05 2676.02,2403.68 2676.55,2401.43"/>
    </edge>
    <edge id=":1956884673_2" function="internal">
        <lane id=":1956884673_2_0" index="0" disallow="tram rail_urban rail rail_electric rail_fast ship" speed="7.05" length="11.69" shape="2671.85,2407.59 2674.88,2405.71 2677.56,2405.18 2679.89,2406.00 2681.85,2408.17"/>
    </edge>
    <edge id=":1956884680_0" function="internal">
        <lane id=":1956884680_0_0" index="0" disallow="tram rail_urban rail rail_electric rail_fast ship" speed="13.89" length="0.10" shape="2489.55,2410.29 2489.54,2410.27"/>
    </edge>
    <edge id=":1956884680_1" function="internal">
        <lane id=":1956884680_1_0" index="0" disallow="tram rail_urban rail rail_electric rail_fast ship" speed="13.89" length="0.10" shape="2492.56,2409.21 2492.59,2409.30"/>
    </edge>
    <edge id=":1956884686_0" function="internal">
        <lane id=":1956884686_0_0" index="0" disallow="tram rail_urban rail rail_electric rail_fast ship" speed="7.95" length="5.62" shape="2687.36,2408.35 2686.31,2409.18 2685.46,2410.22 2684.80,2411.47 2684.35,2412.93"/>
    </edge>
    <edge id=":1956884686_1" function="internal">
        <lane id=":1956884686_1_0" index="0" disallow="tram rail_urban rail rail_electric rail_fast ship" speed="7.68" length="5.17" shape="2681.96,2408.34 2684.35,2412.93"/>
    </edge>
    <edge id=":1956884687_0" function="internal">
        <lane id=":1956884687_0_0" index="0" disallow="tram rail_urban rail rail_electric rail_fast ship" speed="8.72" length="9.31" shape="2671.46,2419.47 2669.38,2417.53 2667.34,2416.23 2665.35,2415.57 2663.40,2415.55"/>
    </edge>
    <edge id=":1956884687_1" function="internal">
        <lane id=":1956884687_1_0" index="0" disallow="tram rail_urban rail rail_electric rail_fast ship" speed="7.65" length="13.64" shape="2671.46,2419.47 2669.16,2416.25 2668.43,2413.21 2669.28,2410.37 2671.69,2407.72"/>
    </edge>
    <edge id=":1956884687_2" function="internal">
        <lane id=":1956884687_2_0" index="0" disallow="tram rail_urban rail rail_electric rail_fast ship" speed="13.89" length="10.16" shape="2662.91,2412.39 2665.81,2411.77 2667.69,2410.93 2669.37,2409.65 2671.69,2407.72"/>
    </edge>
    <edge id=":1956884690_0" function="internal">
        <lane id=":1956884690_0_0" index="0" disallow="tram rail_urban rail rail_electric rail_fast ship" speed="7.34" length="7.77" shape="2687.80,2421.15 2684.99,2420.37 2682.80,2420.01 2681.23,2420.07 2680.28,2420.54"/>
    </edge>
    <edge id=":1956884690_1" function="internal">
        <lane id=":1956884690_1_0" index="0" disallow="tram rail_urban rail rail_electric rail_fast ship" speed="6.13" length="7.39" shape="2684.30,2413.12 2684.30,2414.68 2685.04,2416.03 2686.53,2417.17 2688.77,2418.10"/>
    </edge>
    <edge id=":1956884690_2" function="internal">
        <lane id=":1956884690_2_0" index="0" disallow="tram rail_urban rail rail_electric rail_fast ship" speed="13.49" length="8.62" shape="2684.30,2413.12 2683.69,2415.59 2683.02,2417.22 2681.99,2418.66 2680.28,2420.54"/>
    </edge>
    <edge id=":1956884692_0" function="internal">
        <lane id=":1956884692_0_0" index="0" disallow="tram rail_urban rail rail_electric rail_fast ship" speed="5.19" length="1.63" shape="2680.14,2420.69 2679.79,2420.95 2679.46,2420.98 2679.09,2420.92 2678.60,2420.93"/>
    </edge>
    <edge id=":1956884725_0" function="internal">
        <lane id=":1956884725_0_0" index="0" disallow="tram rail_urban rail rail_electric rail_fast ship" speed="10.55" length="9.61" shape="2571.36,2419.53 2572.48,2422.03 2573.80,2423.44 2575.61,2424.44 2578.18,2425.71"/>
    </edge>
    <edge id=":1956884725_1" function="internal">
        <lane id=":1956884725_1_0" index="0" disallow="tram rail_urban rail rail_electric rail_fast ship" speed="7.45" length="9.01" shape="2565.52,2428.47 2567.32,2426.70 2568.39,2424.79 2568.72,2422.74 2568.33,2420.56"/>
    </edge>
    <edge id=":1956884725_2" function="internal">
        <lane id=":1956884725_2_0" index="0" disallow="tram rail_urban rail rail_electric rail_fast ship" speed="9.43" length="13.72" shape="2565.52,2428.47 2569.02,2426.17 2572.29,2424.95 2575.35,2424.79 2578.18,2425.71"/>
    </edge>
    <edge id=":1956884743_0" function="internal">
        <lane id=":1956884743_0_0" index="0" disallow="tram rail_urban rail rail_electric rail_fast ship" speed="7.49" length="8.75" shape="2590.17,2432.17 2588.24,2433.11 2586.81,2434.54 2585.88,2436.46 2585.45,2438.87"/>
    </edge>
    <edge id=":1956884743_1" function="internal">
        <lane id=":1956884743_1_0" index="0" disallow="tram rail_urban rail rail_electric rail_fast ship" speed="9.74" length="8.86" shape="2580.77,2427.09 2583.38,2428.32 2585.65,2429.07 2587.59,2429.34 2589.19,2429.12"/>
    </edge>
    <edge id=":1956884743_2" function="internal">