<?xml version="1.0" encoding="UTF-8"?>

<!-- generated on ven 3 feb 2023, 16:35:57 by Eclipse SUMO GUI Version 1.8.0
-->

<configuration xmlns:xsi="http://www.w3.org/2001/XMLSchema-instance" xsi:noNamespaceSchemaLocation="http://sumo.dlr.de/xsd/sumoConfiguration.xsd">

    <input>
        <net-file value="/home/toore/Tirocinio_SUMO/Scenario/Scanzano/Scanzano.net.xml"/>
    </input>

</configuration>
