<?xml version="1.0" encoding="UTF-8"?>

<!-- generated on ven 21 ott 2022, 13:07:10 by Eclipse SUMO netedit Version 1.8.0
<configuration xmlns:xsi="http://www.w3.org/2001/XMLSchema-instance" xsi:noNamespaceSchemaLocation="http://sumo.dlr.de/xsd/netconvertConfiguration.xsd">

    <input>
        <sumo-net-file value="/home/toore/Scrivania/Tirocinio/Quick_start/Quick_start.net.xml"/>
    </input>

    <output>
        <output-file value="/home/toore/Scrivania/Tirocinio/Quick_start/Quick_start.net.xml"/>
    </output>

    <processing>
        <geometry.min-radius.fix.railways value="false"/>
        <geometry.max-grade.fix value="false"/>
        <offset.disable-normalization value="true"/>
        <lefthand value="false"/>
    </processing>

    <junctions>
        <no-turnarounds value="true"/>
        <junctions.corner-detail value="5"/>
        <junctions.limit-turn-speed value="5.5"/>
        <rectangular-lane-cut value="false"/>
    </junctions>

    <pedestrian>
        <walkingareas value="false"/>
    </pedestrian>

    <netedit>
        <route-files value="/home/toore/Scrivania/Tirocinio/Quick_start/Quick_start.rou.xml"/>
    </netedit>

    <report>
        <aggregate-warnings value="5"/>
    </report>

</configuration>
-->

<routes xmlns:xsi="http://www.w3.org/2001/XMLSchema-instance" xsi:noNamespaceSchemaLocation="http://sumo.dlr.de/xsd/routes_file.xsd">
    <vType id="pType_0" vClass="pedestrian"/>
    <route edges="gneE36 gneE37 gneE38" color="yellow" id="route_0"/>
    <person id="person_0" depart="0.00">
        <walk route="route_0"/>
    </person>
</routes>
