<?xml version="1.0" encoding="UTF-8"?>

<!-- generated on Fri Dec  2 16:46:47 2022 by Eclipse SUMO duarouter Version 1.8.0
<configuration xmlns:xsi="http://www.w3.org/2001/XMLSchema-instance" xsi:noNamespaceSchemaLocation="http://sumo.dlr.de/xsd/duarouterConfiguration.xsd">

    <input>
        <net-file value="/home/toore/Scrivania/Tirocinio/Prova_out/Prova.net.xml"/>
        <route-files value="trips.trips.xml"/>
    </input>

    <output>
        <output-file value="peds.rou.xml"/>
        <alternatives-output value="NUL"/>
    </output>

    <time>
        <begin value="0"/>
        <end value="1000"/>
    </time>

    <report>
        <no-warnings value="true"/>
        <ignore-errors value="true"/>
        <no-step-log value="true"/>
    </report>

</configuration>
-->

<routes xmlns:xsi="http://www.w3.org/2001/XMLSchema-instance" xsi:noNamespaceSchemaLocation="http://sumo.dlr.de/xsd/routes_file.xsd">
    <person id="0" type="DEFAULT_PEDTYPE" depart="0.80">
        <personTrip from="gneE0" to="gneE0" walkFactor="0.75" costs="0.00"/>
    </person>
    <person id="1" type="DEFAULT_PEDTYPE" depart="2.20">
        <personTrip from="gneE0" to="gneE0" walkFactor="0.75" costs="0.00"/>
    </person>
    <person id="2" type="DEFAULT_PEDTYPE" depart="5.80">
        <personTrip from="gneE0" to="gneE0" walkFactor="0.75" costs="0.00"/>
    </person>
    <person id="3" type="DEFAULT_PEDTYPE" depart="6.40">
        <personTrip from="gneE1" to="gneE1" walkFactor="0.75" costs="0.00"/>
    </person>
    <person id="4" type="DEFAULT_PEDTYPE" depart="7.60">
        <personTrip from="gneE1" to="gneE0" walkFactor="0.75" costs="83.11"/>
    </person>
    <person id="5" type="DEFAULT_PEDTYPE" depart="8.20">
        <personTrip from="gneE0" to="gneE1" walkFactor="0.75" costs="83.11"/>
    </person>
    <person id="6" type="DEFAULT_PEDTYPE" depart="9.40">
        <personTrip from="gneE1" to="gneE0" walkFactor="0.75" costs="83.11"/>
    </person>
    <person id="7" type="DEFAULT_PEDTYPE" depart="9.80">
        <personTrip from="gneE1" to="gneE0" walkFactor="0.75" costs="83.11"/>
    </person>
    <person id="8" type="DEFAULT_PEDTYPE" depart="10.80">
        <personTrip from="gneE1" to="gneE0" walkFactor="0.75" costs="83.11"/>
    </person>
    <person id="9" type="DEFAULT_PEDTYPE" depart="13.40">
        <personTrip from="gneE1" to="gneE1" walkFactor="0.75" costs="0.00"/>
    </person>
    <person id="10" type="DEFAULT_PEDTYPE" depart="14.20">
        <personTrip from="gneE0" to="gneE1" walkFactor="0.75" costs="83.11"/>
    </person>
    <person id="11" type="DEFAULT_PEDTYPE" depart="17.20">
        <personTrip from="gneE1" to="gneE0" walkFactor="0.75" costs="83.11"/>
    </person>
    <person id="12" type="DEFAULT_PEDTYPE" depart="17.80">
        <personTrip from="gneE0" to="gneE0" walkFactor="0.75" costs="0.00"/>
    </person>
    <person id="13" type="DEFAULT_PEDTYPE" depart="19.00">
        <personTrip from="gneE0" to="gneE1" walkFactor="0.75" costs="83.11"/>
    </person>
    <person id="14" type="DEFAULT_PEDTYPE" depart="23.80">
        <personTrip from="gneE1" to="gneE0" walkFactor="0.75" costs="83.11"/>
    </person>
    <person id="15" type="DEFAULT_PEDTYPE" depart="25.20">
        <personTrip from="gneE0" to="gneE1" walkFactor="0.75" costs="83.11"/>
    </person>
    <person id="16" type="DEFAULT_PEDTYPE" depart="26.20">
        <personTrip from="gneE0" to="gneE0" walkFactor="0.75" costs="0.00"/>
    </person>
    <person id="17" type="DEFAULT_PEDTYPE" depart="27.00">
        <personTrip from="gneE1" to="gneE0" walkFactor="0.75" costs="83.11"/>
    </person>
    <person id="18" type="DEFAULT_PEDTYPE" depart="28.60">
        <personTrip from="gneE0" to="gneE1" walkFactor="0.75" costs="83.11"/>
    </person>
    <person id="19" type="DEFAULT_PEDTYPE" depart="29.00">
        <personTrip from="gneE1" to="gneE0" walkFactor="0.75" costs="83.11"/>
    </person>
    <person id="20" type="DEFAULT_PEDTYPE" depart="31.60">
        <personTrip from="gneE0" to="gneE1" walkFactor="0.75" costs="83.11"/>
    </person>
    <person id="21" type="DEFAULT_PEDTYPE" depart="35.00">
        <personTrip from="gneE0" to="gneE1" walkFactor="0.75" costs="83.11"/>
    </person>
    <person id="22" type="DEFAULT_PEDTYPE" depart="35.60">
        <personTrip from="gneE0" to="gneE1" walkFactor="0.75" costs="83.11"/>
    </person>
    <person id="23" type="DEFAULT_PEDTYPE" depart="38.40">
        <personTrip from="gneE0" to="gneE1" walkFactor="0.75" costs="83.11"/>
    </person>
    <person id="24" type="DEFAULT_PEDTYPE" depart="39.00">
        <personTrip from="gneE0" to="gneE0" walkFactor="0.75" costs="0.00"/>
    </person>
    <person id="25" type="DEFAULT_PEDTYPE" depart="41.20">
        <personTrip from="gneE0" to="gneE0" walkFactor="0.75" costs="0.00"/>
    </person>
    <person id="26" type="DEFAULT_PEDTYPE" depart="42.80">
        <personTrip from="gneE1" to="gneE0" walkFactor="0.75" costs="83.11"/>
    </person>
    <person id="27" type="DEFAULT_PEDTYPE" depart="43.20">
        <personTrip from="gneE0" to="gneE0" walkFactor="0.75" costs="0.00"/>
    </person>
    <person id="28" type="DEFAULT_PEDTYPE" depart="43.40">
        <personTrip from="gneE0" to="gneE0" walkFactor="0.75" costs="0.00"/>
    </person>
    <person id="29" type="DEFAULT_PEDTYPE" depart="46.60">
        <personTrip from="gneE0" to="gneE1" walkFactor="0.75" costs="83.11"/>
    </person>
    <person id="30" type="DEFAULT_PEDTYPE" depart="49.20">
        <personTrip from="gneE1" to="gneE0" walkFactor="0.75" costs="83.11"/>
    </person>
    <person id="31" type="DEFAULT_PEDTYPE" depart="49.60">
        <personTrip from="gneE0" to="gneE0" walkFactor="0.75" costs="0.00"/>
    </person>
    <person id="32" type="DEFAULT_PEDTYPE" depart="52.20">
        <personTrip from="gneE1" to="gneE0" walkFactor="0.75" costs="83.11"/>
    </person>
    <person id="33" type="DEFAULT_PEDTYPE" depart="54.60">
        <personTrip from="gneE0" to="gneE0" walkFactor="0.75" costs="0.00"/>
    </person>
    <person id="34" type="DEFAULT_PEDTYPE" depart="56.60">
        <personTrip from="gneE1" to="gneE1" walkFactor="0.75" costs="0.00"/>
    </person>
    <person id="35" type="DEFAULT_PEDTYPE" depart="60.00">
        <personTrip from="gneE0" to="gneE0" walkFactor="0.75" costs="0.00"/>
    </person>
    <person id="36" type="DEFAULT_PEDTYPE" depart="62.60">
        <personTrip from="gneE0" to="gneE0" walkFactor="0.75" costs="0.00"/>
    </person>
    <person id="37" type="DEFAULT_PEDTYPE" depart="62.80">
        <personTrip from="gneE1" to="gneE1" walkFactor="0.75" costs="0.00"/>
    </person>
    <person id="38" type="DEFAULT_PEDTYPE" depart="64.00">
        <personTrip from="gneE0" to="gneE1" walkFactor="0.75" costs="83.11"/>
    </person>
    <person id="39" type="DEFAULT_PEDTYPE" depart="65.60">
        <personTrip from="gneE1" to="gneE1" walkFactor="0.75" costs="0.00"/>
    </person>
    <person id="40" type="DEFAULT_PEDTYPE" depart="67.80">
        <personTrip from="gneE1" to="gneE0" walkFactor="0.75" costs="83.11"/>
    </person>
    <person id="41" type="DEFAULT_PEDTYPE" depart="69.60">
        <personTrip from="gneE1" to="gneE0" walkFactor="0.75" costs="83.11"/>
    </person>
    <person id="42" type="DEFAULT_PEDTYPE" depart="71.00">
        <personTrip from="gneE0" to="gneE1" walkFactor="0.75" costs="83.11"/>
    </person>
    <person id="43" type="DEFAULT_PEDTYPE" depart="72.20">
        <personTrip from="gneE1" to="gneE0" walkFactor="0.75" costs="83.11"/>
    </person>
    <person id="44" type="DEFAULT_PEDTYPE" depart="73.60">
        <personTrip from="gneE0" to="gneE1" walkFactor="0.75" costs="83.11"/>
    </person>
    <person id="45" type="DEFAULT_PEDTYPE" depart="74.80">
        <personTrip from="gneE1" to="gneE1" walkFactor="0.75" costs="0.00"/>
    </person>
    <person id="46" type="DEFAULT_PEDTYPE" depart="76.40">
        <personTrip from="gneE0" to="gneE1" walkFactor="0.75" costs="83.11"/>
    </person>
    <person id="47" type="DEFAULT_PEDTYPE" depart="79.00">
        <personTrip from="gneE0" to="gneE1" walkFactor="0.75" costs="83.11"/>
    </person>
    <person id="48" type="DEFAULT_PEDTYPE" depart="79.80">
        <personTrip from="gneE1" to="gneE0" walkFactor="0.75" costs="83.11"/>
    </person>
    <person id="49" type="DEFAULT_PEDTYPE" depart="82.20">
        <personTrip from="gneE1" to="gneE0" walkFactor="0.75" costs="83.11"/>
    </person>
    <person id="50" type="DEFAULT_PEDTYPE" depart="82.20">
        <personTrip from="gneE0" to="gneE1" walkFactor="0.75" costs="83.11"/>
    </person>
    <person id="51" type="DEFAULT_PEDTYPE" depart="83.80">
        <personTrip from="gneE1" to="gneE0" walkFactor="0.75" costs="83.11"/>
    </person>
    <person id="52" type="DEFAULT_PEDTYPE" depart="84.20">
        <personTrip from="gneE0" to="gneE0" walkFactor="0.75" costs="0.00"/>
    </person>
    <person id="53" type="DEFAULT_PEDTYPE" depart="85.80">
        <personTrip from="gneE0" to="gneE0" walkFactor="0.75" costs="0.00"/>
    </person>
    <person id="54" type="DEFAULT_PEDTYPE" depart="85.80">
        <personTrip from="gneE1" to="gneE0" walkFactor="0.75" costs="83.11"/>
    </person>
    <person id="55" type="DEFAULT_PEDTYPE" depart="86.80">
        <personTrip from="gneE0" to="gneE0" walkFactor="0.75" costs="0.00"/>
    </person>
    <person id="56" type="DEFAULT_PEDTYPE" depart="89.40">
        <personTrip from="gneE0" to="gneE1" walkFactor="0.75" costs="83.11"/>
    </person>
    <person id="57" type="DEFAULT_PEDTYPE" depart="90.20">
        <personTrip from="gneE0" to="gneE0" walkFactor="0.75" costs="0.00"/>
    </person>
    <person id="58" type="DEFAULT_PEDTYPE" depart="90.40">
        <personTrip from="gneE0" to="gneE0" walkFactor="0.75" costs="0.00"/>
    </person>
    <person id="59" type="DEFAULT_PEDTYPE" depart="92.20">
        <personTrip from="gneE0" to="gneE0" walkFactor="0.75" costs="0.00"/>
    </person>
    <person id="60" type="DEFAULT_PEDTYPE" depart="92.20">
        <personTrip from="gneE0" to="gneE0" walkFactor="0.75" costs="0.00"/>
    </person>
    <person id="61" type="DEFAULT_PEDTYPE" depart="95.00">
        <personTrip from="gneE0" to="gneE0" walkFactor="0.75" costs="0.00"/>
    </person>
    <person id="62" type="DEFAULT_PEDTYPE" depart="97.00">
        <personTrip from="gneE0" to="gneE0" walkFactor="0.75" costs="0.00"/>
    </person>
    <person id="63" type="DEFAULT_PEDTYPE" depart="97.60">
        <personTrip from="gneE1" to="gneE1" walkFactor="0.75" costs="0.00"/>
    </person>
    <person id="64" type="DEFAULT_PEDTYPE" depart="98.20">
        <personTrip from="gneE0" to="gneE0" walkFactor="0.75" costs="0.00"/>
    </person>
    <person id="65" type="DEFAULT_PEDTYPE" depart="100.60">
        <personTrip from="gneE1" to="gneE0" walkFactor="0.75" costs="83.11"/>
    </person>
    <person id="66" type="DEFAULT_PEDTYPE" depart="105.60">
        <personTrip from="gneE0" to="gneE1" walkFactor="0.75" costs="83.11"/>
    </person>
    <person id="67" type="DEFAULT_PEDTYPE" depart="105.80">
        <personTrip from="gneE0" to="gneE0" walkFactor="0.75" costs="0.00"/>
    </person>
    <person id="68" type="DEFAULT_PEDTYPE" depart="109.20">
        <personTrip from="gneE0" to="gneE0" walkFactor="0.75" costs="0.00"/>
    </person>
    <person id="69" type="DEFAULT_PEDTYPE" depart="111.00">
        <personTrip from="gneE0" to="gneE0" walkFactor="0.75" costs="0.00"/>
    </person>
    <person id="70" type="DEFAULT_PEDTYPE" depart="111.20">
        <personTrip from="gneE0" to="gneE0" walkFactor="0.75" costs="0.00"/>
    </person>
    <person id="71" type="DEFAULT_PEDTYPE" depart="112.80">
        <personTrip from="gneE1" to="gneE1" walkFactor="0.75" costs="0.00"/>
    </person>
    <person id="72" type="DEFAULT_PEDTYPE" depart="113.40">
        <personTrip from="gneE0" to="gneE0" walkFactor="0.75" costs="0.00"/>
    </person>
    <person id="73" type="DEFAULT_PEDTYPE" depart="113.40">
        <personTrip from="gneE1" to="gneE0" walkFactor="0.75" costs="83.11"/>
    </person>
    <person id="74" type="DEFAULT_PEDTYPE" depart="115.20">
        <personTrip from="gneE0" to="gneE0" walkFactor="0.75" costs="0.00"/>
    </person>
    <person id="75" type="DEFAULT_PEDTYPE" depart="117.40">
        <personTrip from="gneE0" to="gneE0" walkFactor="0.75" costs="0.00"/>
    </person>
    <person id="76" type="DEFAULT_PEDTYPE" depart="118.00">
        <personTrip from="gneE0" to="gneE1" walkFactor="0.75" costs="83.11"/>
    </person>
    <person id="77" type="DEFAULT_PEDTYPE" depart="118.20">
        <personTrip from="gneE0" to="gneE0" walkFactor="0.75" costs="0.00"/>
    </person>
    <person id="78" type="DEFAULT_PEDTYPE" depart="119.00">
        <personTrip from="gneE0" to="gneE0" walkFactor="0.75" costs="0.00"/>
    </person>
    <person id="79" type="DEFAULT_PEDTYPE" depart="119.40">
        <personTrip from="gneE1" to="gneE0" walkFactor="0.75" costs="83.11"/>
    </person>
    <person id="80" type="DEFAULT_PEDTYPE" depart="120.40">
        <personTrip from="gneE1" to="gneE0" walkFactor="0.75" costs="83.11"/>
    </person>
    <person id="81" type="DEFAULT_PEDTYPE" depart="125.00">
        <personTrip from="gneE0" to="gneE0" walkFactor="0.75" costs="0.00"/>
    </person>
    <person id="82" type="DEFAULT_PEDTYPE" depart="126.20">
        <personTrip from="gneE0" to="gneE1" walkFactor="0.75" costs="83.11"/>
    </person>
    <person id="83" type="DEFAULT_PEDTYPE" depart="126.40">
        <personTrip from="gneE0" to="gneE0" walkFactor="0.75" costs="0.00"/>
    </person>
    <person id="84" type="DEFAULT_PEDTYPE" depart="127.20">
        <personTrip from="gneE0" to="gneE1" walkFactor="0.75" costs="83.11"/>
    </person>
    <person id="85" type="DEFAULT_PEDTYPE" depart="127.60">
        <personTrip from="gneE1" to="gneE0" walkFactor="0.75" costs="83.11"/>
    </person>
    <person id="86" type="DEFAULT_PEDTYPE" depart="129.20">
        <personTrip from="gneE0" to="gneE0" walkFactor="0.75" costs="0.00"/>
    </person>
    <person id="87" type="DEFAULT_PEDTYPE" depart="134.60">
        <personTrip from="gneE0" to="gneE1" walkFactor="0.75" costs="83.11"/>
    </person>
    <person id="88" type="DEFAULT_PEDTYPE" depart="134.60">
        <personTrip from="gneE0" to="gneE0" walkFactor="0.75" costs="0.00"/>
    </person>
    <person id="89" type="DEFAULT_PEDTYPE" depart="137.00">
        <personTrip from="gneE1" to="gneE0" walkFactor="0.75" costs="83.11"/>
    </person>
    <person id="90" type="DEFAULT_PEDTYPE" depart="137.80">
        <personTrip from="gneE0" to="gneE0" walkFactor="0.75" costs="0.00"/>
    </person>
    <person id="91" type="DEFAULT_PEDTYPE" depart="138.40">
        <personTrip from="gneE0" to="gneE1" walkFactor="0.75" costs="83.11"/>
    </person>
    <person id="92" type="DEFAULT_PEDTYPE" depart="140.20">
        <personTrip from="gneE0" to="gneE0" walkFactor="0.75" costs="0.00"/>
    </person>
    <person id="93" type="DEFAULT_PEDTYPE" depart="141.20">
        <personTrip from="gneE0" to="gneE0" walkFactor="0.75" costs="0.00"/>
    </person>
    <person id="94" type="DEFAULT_PEDTYPE" depart="144.80">
        <personTrip from="gneE0" to="gneE0" walkFactor="0.75" costs="0.00"/>
    </person>
    <person id="95" type="DEFAULT_PEDTYPE" depart="147.40">
        <personTrip from="gneE0" to="gneE1" walkFactor="0.75" costs="83.11"/>
    </person>
    <person id="96" type="DEFAULT_PEDTYPE" depart="148.00">
        <personTrip from="gneE1" to="gneE0" walkFactor="0.75" costs="83.11"/>
    </person>
    <person id="97" type="DEFAULT_PEDTYPE" depart="149.60">
        <personTrip from="gneE0" to="gneE1" walkFactor="0.75" costs="83.11"/>
    </person>
    <person id="98" type="DEFAULT_PEDTYPE" depart="150.00">
        <personTrip from="gneE0" to="gneE1" walkFactor="0.75" costs="83.11"/>
    </person>
    <person id="99" type="DEFAULT_PEDTYPE" depart="152.00">
        <personTrip from="gneE1" to="gneE1" walkFactor="0.75" costs="0.00"/>
    </person>
    <person id="100" type="DEFAULT_PEDTYPE" depart="154.00">
        <personTrip from="gneE0" to="gneE0" walkFactor="0.75" costs="0.00"/>
    </person>
    <person id="101" type="DEFAULT_PEDTYPE" depart="155.20">
        <personTrip from="gneE0" to="gneE1" walkFactor="0.75" costs="83.11"/>
    </person>
    <person id="102" type="DEFAULT_PEDTYPE" depart="156.00">
        <personTrip from="gneE1" to="gneE0" walkFactor="0.75" costs="83.11"/>
    </person>
    <person id="103" type="DEFAULT_PEDTYPE" depart="158.60">
        <personTrip from="gneE0" to="gneE0" walkFactor="0.75" costs="0.00"/>
    </person>
    <person id="104" type="DEFAULT_PEDTYPE" depart="160.60">
        <personTrip from="gneE0" to="gneE0" walkFactor="0.75" costs="0.00"/>
    </person>
    <person id="105" type="DEFAULT_PEDTYPE" depart="161.00">
        <personTrip from="gneE0" to="gneE0" walkFactor="0.75" costs="0.00"/>
    </person>
    <person id="106" type="DEFAULT_PEDTYPE" depart="161.00">
        <personTrip from="gneE0" to="gneE0" walkFactor="0.75" costs="0.00"/>
    </person>
    <person id="107" type="DEFAULT_PEDTYPE" depart="163.80">
        <personTrip from="gneE1" to="gneE0" walkFactor="0.75" costs="83.11"/>
    </person>
    <person id="108" type="DEFAULT_PEDTYPE" depart="166.40">
        <personTrip from="gneE1" to="gneE0" walkFactor="0.75" costs="83.11"/>
    </person>
    <person id="109" type="DEFAULT_PEDTYPE" depart="169.20">
        <personTrip from="gneE0" to="gneE0" walkFactor="0.75" costs="0.00"/>
    </person>
    <person id="110" type="DEFAULT_PEDTYPE" depart="172.40">
        <personTrip from="gneE0" to="gneE0" walkFactor="0.75" costs="0.00"/>
    </person>
    <person id="111" type="DEFAULT_PEDTYPE" depart="172.40">
        <personTrip from="gneE0" to="gneE1" walkFactor="0.75" costs="83.11"/>
    </person>
    <person id="112" type="DEFAULT_PEDTYPE" depart="174.80">
        <personTrip from="gneE1" to="gneE0" walkFactor="0.75" costs="83.11"/>
    </person>
    <person id="113" type="DEFAULT_PEDTYPE" depart="176.20">
        <personTrip from="gneE1" to="gneE0" walkFactor="0.75" costs="83.11"/>
    </person>
    <person id="114" type="DEFAULT_PEDTYPE" depart="176.60">
        <personTrip from="gneE0" to="gneE0" walkFactor="0.75" costs="0.00"/>
    </person>
    <person id="115" type="DEFAULT_PEDTYPE" depart="177.00">
        <personTrip from="gneE0" to="gneE0" walkFactor="0.75" costs="0.00"/>
    </person>
    <person id="116" type="DEFAULT_PEDTYPE" depart="178.00">
        <personTrip from="gneE1" to="gneE0" walkFactor="0.75" costs="83.11"/>
    </person>
    <person id="117" type="DEFAULT_PEDTYPE" depart="178.80">
        <personTrip from="gneE0" to="gneE1" walkFactor="0.75" costs="83.11"/>
    </person>
    <person id="118" type="DEFAULT_PEDTYPE" depart="180.80">
        <personTrip from="gneE0" to="gneE0" walkFactor="0.75" costs="0.00"/>
    </person>
    <person id="119" type="DEFAULT_PEDTYPE" depart="185.20">
        <personTrip from="gneE0" to="gneE0" walkFactor="0.75" costs="0.00"/>
    </person>
    <person id="120" type="DEFAULT_PEDTYPE" depart="186.80">
        <personTrip from="gneE0" to="gneE1" walkFactor="0.75" costs="83.11"/>
    </person>
    <person id="121" type="DEFAULT_PEDTYPE" depart="187.40">
        <personTrip from="gneE0" to="gneE0" walkFactor="0.75" costs="0.00"/>
    </person>
    <person id="122" type="DEFAULT_PEDTYPE" depart="188.80">
        <personTrip from="gneE0" to="gneE0" walkFactor="0.75" costs="0.00"/>
    </person>
    <person id="123" type="DEFAULT_PEDTYPE" depart="189.40">
        <personTrip from="gneE0" to="gneE1" walkFactor="0.75" costs="83.11"/>
    </person>
    <person id="124" type="DEFAULT_PEDTYPE" depart="189.60">
        <personTrip from="gneE1" to="gneE0" walkFactor="0.75" costs="83.11"/>
    </person>
    <person id="125" type="DEFAULT_PEDTYPE" depart="189.80">
        <personTrip from="gneE0" to="gneE1" walkFactor="0.75" costs="83.11"/>
    </person>
    <person id="126" type="DEFAULT_PEDTYPE" depart="190.00">
        <personTrip from="gneE0" to="gneE0" walkFactor="0.75" costs="0.00"/>
    </person>
    <person id="127" type="DEFAULT_PEDTYPE" depart="191.20">
        <personTrip from="gneE0" to="gneE0" walkFactor="0.75" costs="0.00"/>
    </person>
    <person id="128" type="DEFAULT_PEDTYPE" depart="191.60">
        <personTrip from="gneE0" to="gneE0" walkFactor="0.75" costs="0.00"/>
    </person>
    <person id="129" type="DEFAULT_PEDTYPE" depart="191.80">
        <personTrip from="gneE0" to="gneE0" walkFactor="0.75" costs="0.00"/>
    </person>
    <person id="130" type="DEFAULT_PEDTYPE" depart="193.20">
        <personTrip from="gneE0" to="gneE0" walkFactor="0.75" costs="0.00"/>
    </person>
    <person id="131" type="DEFAULT_PEDTYPE" depart="195.40">
        <personTrip from="gneE0" to="gneE1" walkFactor="0.75" costs="83.11"/>
    </person>
    <person id="132" type="DEFAULT_PEDTYPE" depart="196.60">
        <personTrip from="gneE0" to="gneE0" walkFactor="0.75" costs="0.00"/>
    </person>
    <person id="133" type="DEFAULT_PEDTYPE" depart="198.60">
        <personTrip from="gneE1" to="gneE0" walkFactor="0.75" costs="83.11"/>
    </person>
    <person id="134" type="DEFAULT_PEDTYPE" depart="198.60">
        <personTrip from="gneE0" to="gneE0" walkFactor="0.75" costs="0.00"/>
    </person>
    <person id="135" type="DEFAULT_PEDTYPE" depart="199.00">
        <personTrip from="gneE0" to="gneE1" walkFactor="0.75" costs="83.11"/>
    </person>
    <person id="136" type="DEFAULT_PEDTYPE" depart="201.60">
        <personTrip from="gneE1" to="gneE1" walkFactor="0.75" costs="0.00"/>
    </person>
    <person id="137" type="DEFAULT_PEDTYPE" depart="202.40">
        <personTrip from="gneE0" to="gneE0" walkFactor="0.75" costs="0.00"/>
    </person>
    <person id="138" type="DEFAULT_PEDTYPE" depart="202.40">
        <personTrip from="gneE0" to="gneE0" walkFactor="0.75" costs="0.00"/>
    </person>
    <person id="139" type="DEFAULT_PEDTYPE" depart="203.20">
        <personTrip from="gneE0" to="gneE1" walkFactor="0.75" costs="83.11"/>
    </person>
    <person id="140" type="DEFAULT_PEDTYPE" depart="204.00">
        <personTrip from="gneE1" to="gneE0" walkFactor="0.75" costs="83.11"/>
    </person>
    <person id="141" type="DEFAULT_PEDTYPE" depart="205.60">
        <personTrip from="gneE0" to="gneE0" walkFactor="0.75" costs="0.00"/>
    </person>
    <person id="142" type="DEFAULT_PEDTYPE" depart="205.80">
        <personTrip from="gneE1" to="gneE0" walkFactor="0.75" costs="83.11"/>
    </person>
    <person id="143" type="DEFAULT_PEDTYPE" depart="206.00">
        <personTrip from="gneE0" to="gneE0" walkFactor="0.75" costs="0.00"/>
    </person>
    <person id="144" type="DEFAULT_PEDTYPE" depart="206.00">
        <personTrip from="gneE0" to="gneE0" walkFactor="0.75" costs="0.00"/>
    </person>
    <person id="145" type="DEFAULT_PEDTYPE" depart="207.60">
        <personTrip from="gneE0" to="gneE1" walkFactor="0.75" costs="83.11"/>
    </person>
    <person id="146" type="DEFAULT_PEDTYPE" depart="207.60">
        <personTrip from="gneE0" to="gneE0" walkFactor="0.75" costs="0.00"/>
    </person>
    <person id="147" type="DEFAULT_PEDTYPE" depart="209.40">
        <personTrip from="gneE0" to="gneE1" walkFactor="0.75" costs="83.11"/>
    </person>
    <person id="148" type="DEFAULT_PEDTYPE" depart="210.20">
        <personTrip from="gneE0" to="gneE0" walkFactor="0.75" costs="0.00"/>
    </person>
    <person id="149" type="DEFAULT_PEDTYPE" depart="210.60">
        <personTrip from="gneE1" to="gneE0" walkFactor="0.75" costs="83.11"/>
    </person>
    <person id="150" type="DEFAULT_PEDTYPE" depart="212.20">
        <personTrip from="gneE0" to="gneE1" walkFactor="0.75" costs="83.11"/>
    </person>
    <person id="151" type="DEFAULT_PEDTYPE" depart="214.20">
        <personTrip from="gneE0" to="gneE0" walkFactor="0.75" costs="0.00"/>
    </person>
    <person id="152" type="DEFAULT_PEDTYPE" depart="215.40">
        <personTrip from="gneE1" to="gneE1" walkFactor="0.75" costs="0.00"/>
    </person>
    <person id="153" type="DEFAULT_PEDTYPE" depart="215.60">
        <personTrip from="gneE0" to="gneE0" walkFactor="0.75" costs="0.00"/>
    </person>
    <person id="154" type="DEFAULT_PEDTYPE" depart="222.40">
        <personTrip from="gneE0" to="gneE1" walkFactor="0.75" costs="83.11"/>
    </person>
    <person id="155" type="DEFAULT_PEDTYPE" depart="223.00">
        <personTrip from="gneE0" to="gneE1" walkFactor="0.75" costs="83.11"/>
    </person>
    <person id="156" type="DEFAULT_PEDTYPE" depart="223.20">
        <personTrip from="gneE1" to="gneE1" walkFactor="0.75" costs="0.00"/>
    </person>
    <person id="157" type="DEFAULT_PEDTYPE" depart="224.60">
        <personTrip from="gneE0" to="gneE0" walkFactor="0.75" costs="0.00"/>
    </person>
    <person id="158" type="DEFAULT_PEDTYPE" depart="224.80">
        <personTrip from="gneE0" to="gneE0" walkFactor="0.75" costs="0.00"/>
    </person>
    <person id="159" type="DEFAULT_PEDTYPE" depart="227.40">
        <personTrip from="gneE0" to="gneE0" walkFactor="0.75" costs="0.00"/>
    </person>
    <person id="160" type="DEFAULT_PEDTYPE" depart="227.40">
        <personTrip from="gneE0" to="gneE1" walkFactor="0.75" costs="83.11"/>
    </person>
    <person id="161" type="DEFAULT_PEDTYPE" depart="231.40">
        <personTrip from="gneE1" to="gneE0" walkFactor="0.75" costs="83.11"/>
    </person>
    <person id="162" type="DEFAULT_PEDTYPE" depart="231.80">
        <personTrip from="gneE0" to="gneE1" walkFactor="0.75" costs="83.11"/>
    </person>
    <person id="163" type="DEFAULT_PEDTYPE" depart="234.40">
        <personTrip from="gneE0" to="gneE0" walkFactor="0.75" costs="0.00"/>
    </person>
    <person id="164" type="DEFAULT_PEDTYPE" depart="236.60">
        <personTrip from="gneE0" to="gneE1" walkFactor="0.75" costs="83.11"/>
    </person>
    <person id="165" type="DEFAULT_PEDTYPE" depart="238.40">
        <personTrip from="gneE0" to="gneE0" walkFactor="0.75" costs="0.00"/>
    </person>
    <person id="166" type="DEFAULT_PEDTYPE" depart="239.40">
        <personTrip from="gneE1" to="gneE0" walkFactor="0.75" costs="83.11"/>
    </person>
    <person id="167" type="DEFAULT_PEDTYPE" depart="240.20">
        <personTrip from="gneE0" to="gneE0" walkFactor="0.75" costs="0.00"/>
    </person>
    <person id="168" type="DEFAULT_PEDTYPE" depart="242.20">
        <personTrip from="gneE0" to="gneE0" walkFactor="0.75" costs="0.00"/>
    </person>
    <person id="169" type="DEFAULT_PEDTYPE" depart="245.20">
        <personTrip from="gneE1" to="gneE0" walkFactor="0.75" costs="83.11"/>
    </person>
    <person id="170" type="DEFAULT_PEDTYPE" depart="245.40">
        <personTrip from="gneE0" to="gneE0" walkFactor="0.75" costs="0.00"/>
    </person>
    <person id="171" type="DEFAULT_PEDTYPE" depart="246.20">
        <personTrip from="gneE0" to="gneE0" walkFactor="0.75" costs="0.00"/>
    </person>
    <person id="172" type="DEFAULT_PEDTYPE" depart="248.60">
        <personTrip from="gneE0" to="gneE0" walkFactor="0.75" costs="0.00"/>
    </person>
    <person id="173" type="DEFAULT_PEDTYPE" depart="249.60">
        <personTrip from="gneE0" to="gneE0" walkFactor="0.75" costs="0.00"/>
    </person>
    <person id="174" type="DEFAULT_PEDTYPE" depart="250.20">
        <personTrip from="gneE0" to="gneE0" walkFactor="0.75" costs="0.00"/>
    </person>
    <person id="175" type="DEFAULT_PEDTYPE" depart="252.80">
        <personTrip from="gneE0" to="gneE0" walkFactor="0.75" costs="0.00"/>
    </person>
    <person id="176" type="DEFAULT_PEDTYPE" depart="256.20">
        <personTrip from="gneE1" to="gneE0" walkFactor="0.75" costs="83.11"/>
    </person>
    <person id="177" type="DEFAULT_PEDTYPE" depart="256.80">
        <personTrip from="gneE0" to="gneE0" walkFactor="0.75" costs="0.00"/>
    </person>
    <person id="178" type="DEFAULT_PEDTYPE" depart="257.80">
        <personTrip from="gneE1" to="gneE1" walkFactor="0.75" costs="0.00"/>
    </person>
    <person id="179" type="DEFAULT_PEDTYPE" depart="258.20">
        <personTrip from="gneE0" to="gneE0" walkFactor="0.75" costs="0.00"/>
    </person>
    <person id="180" type="DEFAULT_PEDTYPE" depart="259.00">
        <personTrip from="gneE1" to="gneE0" walkFactor="0.75" costs="83.11"/>
    </person>
    <person id="181" type="DEFAULT_PEDTYPE" depart="263.00">
        <personTrip from="gneE0" to="gneE1" walkFactor="0.75" costs="83.11"/>
    </person>
    <person id="182" type="DEFAULT_PEDTYPE" depart="264.20">
        <personTrip from="gneE0" to="gneE0" walkFactor="0.75" costs="0.00"/>
    </person>
    <person id="183" type="DEFAULT_PEDTYPE" depart="264.40">
        <personTrip from="gneE1" to="gneE0" walkFactor="0.75" costs="83.11"/>
    </person>
    <person id="184" type="DEFAULT_PEDTYPE" depart="265.00">
        <personTrip from="gneE1" to="gneE1" walkFactor="0.75" costs="0.00"/>
    </person>
    <person id="185" type="DEFAULT_PEDTYPE" depart="266.00">
        <personTrip from="gneE0" to="gneE0" walkFactor="0.75" costs="0.00"/>
    </person>
    <person id="186" type="DEFAULT_PEDTYPE" depart="268.40">
        <personTrip from="gneE0" to="gneE1" walkFactor="0.75" costs="83.11"/>
    </person>
    <person id="187" type="DEFAULT_PEDTYPE" depart="269.20">
        <personTrip from="gneE1" to="gneE0" walkFactor="0.75" costs="83.11"/>
    </person>
    <person id="188" type="DEFAULT_PEDTYPE" depart="271.80">
        <personTrip from="gneE0" to="gneE0" walkFactor="0.75" costs="0.00"/>
    </person>
    <person id="189" type="DEFAULT_PEDTYPE" depart="271.80">
        <personTrip from="gneE0" to="gneE0" walkFactor="0.75" costs="0.00"/>
    </person>
    <person id="190" type="DEFAULT_PEDTYPE" depart="275.20">
        <personTrip from="gneE0" to="gneE1" walkFactor="0.75" costs="83.11"/>
    </person>
    <person id="191" type="DEFAULT_PEDTYPE" depart="278.20">
        <personTrip from="gneE0" to="gneE1" walkFactor="0.75" costs="83.11"/>