<?xml version="1.0" encoding="UTF-8"?>

<!-- generated on Sat Apr  1 13:05:15 2023 by Eclipse SUMO duarouter Version 1.8.0
<configuration xmlns:xsi="http://www.w3.org/2001/XMLSchema-instance" xsi:noNamespaceSchemaLocation="http://sumo.dlr.de/xsd/duarouterConfiguration.xsd">

    <input>
        <net-file value="/home/toore/Tirocinio_SUMO/Scenario/Prova_out/Prova.net.xml"/>
        <route-files value="trips.trips.xml"/>
    </input>

    <output>
        <output-file value="vehicles.rou.xml"/>
        <alternatives-output value="NUL"/>
    </output>

    <time>
        <begin value="0"/>
        <end value="1000"/>
    </time>

    <report>
        <no-warnings value="true"/>
        <ignore-errors value="true"/>
        <no-step-log value="true"/>
    </report>

</configuration>
-->

<routes xmlns:xsi="http://www.w3.org/2001/XMLSchema-instance" xsi:noNamespaceSchemaLocation="http://sumo.dlr.de/xsd/routes_file.xsd">
    <vehicle id="0_0" depart="triggered">
        <routeDistribution last="0">
            <route cost="0.00" probability="1.00000000" edges="gneE0 gneE1"/>
        </routeDistribution>
    </vehicle>
    <person id="0" depart="0.60">
        <personTrip from="gneE0" to="gneE1" modes="public car" walkFactor="0.75" costs="6.23"/>
    </person>
    <vehicle id="1_0" depart="triggered">
        <routeDistribution last="0">
            <route cost="0.00" probability="1.00000000" edges="gneE0 gneE1"/>
        </routeDistribution>
    </vehicle>
    <person id="1" depart="1.20">
        <personTrip from="gneE0" to="gneE1" modes="public car" walkFactor="0.75" costs="6.23"/>
    </person>
    <person id="2" depart="1.60">
        <personTrip from="gneE0" to="gneE0" modes="public car" walkFactor="0.75" costs="0.00"/>
    </person>
    <person id="3" depart="3.40">
        <personTrip from="gneE0" to="gneE0" modes="public car" walkFactor="0.75" costs="0.00"/>
    </person>
    <person id="4" depart="3.80">
        <personTrip from="gneE0" to="gneE0" modes="public car" walkFactor="0.75" costs="0.00"/>
    </person>
    <person id="5" depart="5.00">
        <personTrip from="gneE1" to="gneE0" modes="public car" walkFactor="0.75" costs="83.11"/>
    </person>
    <person id="6" depart="5.60">
        <personTrip from="gneE0" to="gneE0" modes="public car" walkFactor="0.75" costs="0.00"/>
    </person>
    <vehicle id="7_0" depart="triggered">
        <routeDistribution last="0">
            <route cost="0.00" probability="1.00000000" edges="gneE0 gneE1"/>
        </routeDistribution>
    </vehicle>
    <person id="7" depart="8.60">
        <personTrip from="gneE0" to="gneE1" modes="public car" walkFactor="0.75" costs="6.23"/>
    </person>
    <person id="8" depart="10.00">
        <personTrip from="gneE1" to="gneE0" modes="public car" walkFactor="0.75" costs="83.11"/>
    </person>
    <person id="9" depart="13.20">
        <personTrip from="gneE1" to="gneE1" modes="public car" walkFactor="0.75" costs="0.00"/>
    </person>
    <person id="10" depart="13.40">
        <personTrip from="gneE0" to="gneE0" modes="public car" walkFactor="0.75" costs="0.00"/>
    </person>
    <vehicle id="11_0" depart="triggered">
        <routeDistribution last="0">
            <route cost="0.00" probability="1.00000000" edges="gneE0 gneE1"/>
        </routeDistribution>
    </vehicle>
    <person id="11" depart="17.80">
        <personTrip from="gneE0" to="gneE1" modes="public car" walkFactor="0.75" costs="6.23"/>
    </person>
    <vehicle id="12_0" depart="triggered">
        <routeDistribution last="0">
            <route cost="0.00" probability="1.00000000" edges="gneE0 gneE1"/>
        </routeDistribution>
    </vehicle>
    <person id="12" depart="20.20">
        <personTrip from="gneE0" to="gneE1" modes="public car" walkFactor="0.75" costs="6.23"/>
    </person>
    <vehicle id="13_0" depart="triggered">
        <routeDistribution last="0">
            <route cost="0.00" probability="1.00000000" edges="gneE0 gneE1"/>
        </routeDistribution>
    </vehicle>
    <person id="13" depart="22.00">
        <personTrip from="gneE0" to="gneE1" modes="public car" walkFactor="0.75" costs="6.23"/>
    </person>
    <person id="14" depart="24.20">
        <personTrip from="gneE0" to="gneE0" modes="public car" walkFactor="0.75" costs="0.00"/>
    </person>
    <person id="15" depart="24.20">
        <personTrip from="gneE1" to="gneE0" modes="public car" walkFactor="0.75" costs="83.11"/>
    </person>
    <person id="16" depart="24.20">
        <personTrip from="gneE0" to="gneE0" modes="public car" walkFactor="0.75" costs="0.00"/>
    </person>
    <person id="17" depart="25.80">
        <personTrip from="gneE0" to="gneE0" modes="public car" walkFactor="0.75" costs="0.00"/>
    </person>
    <vehicle id="18_0" depart="triggered">
        <routeDistribution last="0">
            <route cost="0.00" probability="1.00000000" edges="gneE0 gneE1"/>
        </routeDistribution>
    </vehicle>
    <person id="18" depart="26.20">
        <personTrip from="gneE0" to="gneE1" modes="public car" walkFactor="0.75" costs="6.23"/>
    </person>
    <person id="19" depart="31.80">
        <personTrip from="gneE0" to="gneE0" modes="public car" walkFactor="0.75" costs="0.00"/>
    </person>
    <person id="20" depart="33.00">
        <personTrip from="gneE0" to="gneE0" modes="public car" walkFactor="0.75" costs="0.00"/>
    </person>
    <vehicle id="21_0" depart="triggered">
        <routeDistribution last="0">
            <route cost="0.00" probability="1.00000000" edges="gneE0 gneE1"/>
        </routeDistribution>
    </vehicle>
    <person id="21" depart="33.40">
        <personTrip from="gneE0" to="gneE1" modes="public car" walkFactor="0.75" costs="6.23"/>
    </person>
    <person id="22" depart="34.20">
        <personTrip from="gneE1" to="gneE0" modes="public car" walkFactor="0.75" costs="83.11"/>
    </person>
    <person id="23" depart="38.00">
        <personTrip from="gneE1" to="gneE0" modes="public car" walkFactor="0.75" costs="83.11"/>
    </person>
    <person id="24" depart="38.00">
        <personTrip from="gneE0" to="gneE0" modes="public car" walkFactor="0.75" costs="0.00"/>
    </person>
    <vehicle id="25_0" depart="triggered">
        <routeDistribution last="0">
            <route cost="0.00" probability="1.00000000" edges="gneE0 gneE1"/>
        </routeDistribution>
    </vehicle>
    <person id="25" depart="39.80">
        <personTrip from="gneE0" to="gneE1" modes="public car" walkFactor="0.75" costs="6.23"/>
    </person>
    <person id="26" depart="39.80">
        <personTrip from="gneE1" to="gneE0" modes="public car" walkFactor="0.75" costs="83.11"/>
    </person>
    <person id="27" depart="40.60">
        <personTrip from="gneE0" to="gneE0" modes="public car" walkFactor="0.75" costs="0.00"/>
    </person>
    <vehicle id="28_0" depart="triggered">
        <routeDistribution last="0">
            <route cost="0.00" probability="1.00000000" edges="gneE0 gneE1"/>
        </routeDistribution>
    </vehicle>
    <person id="28" depart="40.60">
        <personTrip from="gneE0" to="gneE1" modes="public car" walkFactor="0.75" costs="6.23"/>
    </person>
    <person id="29" depart="42.40">
        <personTrip from="gneE0" to="gneE0" modes="public car" walkFactor="0.75" costs="0.00"/>
    </person>
    <person id="30" depart="45.40">
        <personTrip from="gneE1" to="gneE0" modes="public car" walkFactor="0.75" costs="83.11"/>
    </person>
    <vehicle id="31_0" depart="triggered">
        <routeDistribution last="0">
            <route cost="0.00" probability="1.00000000" edges="gneE0 gneE1"/>
        </routeDistribution>
    </vehicle>
    <person id="31" depart="46.20">
        <personTrip from="gneE0" to="gneE1" modes="public car" walkFactor="0.75" costs="6.23"/>
    </person>
    <person id="32" depart="47.80">
        <personTrip from="gneE0" to="gneE0" modes="public car" walkFactor="0.75" costs="0.00"/>
    </person>
    <person id="33" depart="48.60">
        <personTrip from="gneE0" to="gneE0" modes="public car" walkFactor="0.75" costs="0.00"/>
    </person>
    <person id="34" depart="49.40">
        <personTrip from="gneE1" to="gneE1" modes="public car" walkFactor="0.75" costs="0.00"/>
    </person>
    <person id="35" depart="49.60">
        <personTrip from="gneE0" to="gneE0" modes="public car" walkFactor="0.75" costs="0.00"/>
    </person>
    <person id="36" depart="52.00">
        <personTrip from="gneE0" to="gneE0" modes="public car" walkFactor="0.75" costs="0.00"/>
    </person>
    <person id="37" depart="52.00">
        <personTrip from="gneE1" to="gneE1" modes="public car" walkFactor="0.75" costs="0.00"/>
    </person>
    <person id="38" depart="53.00">
        <personTrip from="gneE0" to="gneE0" modes="public car" walkFactor="0.75" costs="0.00"/>
    </person>
    <vehicle id="39_0" depart="triggered">
        <routeDistribution last="0">
            <route cost="0.00" probability="1.00000000" edges="gneE0 gneE1"/>
        </routeDistribution>
    </vehicle>
    <person id="39" depart="54.00">
        <personTrip from="gneE0" to="gneE1" modes="public car" walkFactor="0.75" costs="6.23"/>
    </person>
    <person id="40" depart="55.80">
        <personTrip from="gneE0" to="gneE0" modes="public car" walkFactor="0.75" costs="0.00"/>
    </person>
    <person id="41" depart="55.80">
        <personTrip from="gneE1" to="gneE0" modes="public car" walkFactor="0.75" costs="83.11"/>
    </person>
    <vehicle id="42_0" depart="triggered">
        <routeDistribution last="0">
            <route cost="0.00" probability="1.00000000" edges="gneE0 gneE1"/>
        </routeDistribution>
    </vehicle>
    <person id="42" depart="57.00">
        <personTrip from="gneE0" to="gneE1" modes="public car" walkFactor="0.75" costs="6.23"/>
    </person>
    <vehicle id="43_0" depart="triggered">
        <routeDistribution last="0">
            <route cost="0.00" probability="1.00000000" edges="gneE0 gneE1"/>
        </routeDistribution>
    </vehicle>
    <person id="43" depart="59.20">
        <personTrip from="gneE0" to="gneE1" modes="public car" walkFactor="0.75" costs="6.23"/>
    </person>
    <person id="44" depart="60.40">
        <personTrip from="gneE0" to="gneE0" modes="public car" walkFactor="0.75" costs="0.00"/>
    </person>
    <person id="45" depart="61.00">
        <personTrip from="gneE0" to="gneE0" modes="public car" walkFactor="0.75" costs="0.00"/>
    </person>
    <person id="46" depart="62.40">
        <personTrip from="gneE1" to="gneE0" modes="public car" walkFactor="0.75" costs="83.11"/>
    </person>
    <person id="47" depart="62.60">
        <personTrip from="gneE0" to="gneE0" modes="public car" walkFactor="0.75" costs="0.00"/>
    </person>
    <person id="48" depart="63.60">
        <personTrip from="gneE0" to="gneE0" modes="public car" walkFactor="0.75" costs="0.00"/>
    </person>
    <person id="49" depart="65.60">
        <personTrip from="gneE0" to="gneE0" modes="public car" walkFactor="0.75" costs="0.00"/>
    </person>
    <vehicle id="50_0" depart="triggered">
        <routeDistribution last="0">
            <route cost="0.00" probability="1.00000000" edges="gneE0 gneE1"/>
        </routeDistribution>
    </vehicle>
    <person id="50" depart="65.80">
        <personTrip from="gneE0" to="gneE1" modes="public car" walkFactor="0.75" costs="6.23"/>
    </person>
    <person id="51" depart="66.80">
        <personTrip from="gneE0" to="gneE0" modes="public car" walkFactor="0.75" costs="0.00"/>
    </person>
    <person id="52" depart="67.80">
        <personTrip from="gneE0" to="gneE0" modes="public car" walkFactor="0.75" costs="0.00"/>
    </person>
    <person id="53" depart="69.40">
        <personTrip from="gneE0" to="gneE0" modes="public car" walkFactor="0.75" costs="0.00"/>
    </person>
    <vehicle id="54_0" depart="triggered">
        <routeDistribution last="0">
            <route cost="0.00" probability="1.00000000" edges="gneE0 gneE1"/>
        </routeDistribution>
    </vehicle>
    <person id="54" depart="71.80">
        <personTrip from="gneE0" to="gneE1" modes="public car" walkFactor="0.75" costs="6.23"/>
    </person>
    <person id="55" depart="73.20">
        <personTrip from="gneE0" to="gneE0" modes="public car" walkFactor="0.75" costs="0.00"/>
    </person>
    <person id="56" depart="73.40">
        <personTrip from="gneE1" to="gneE1" modes="public car" walkFactor="0.75" costs="0.00"/>
    </person>
    <person id="57" depart="73.80">
        <personTrip from="gneE0" to="gneE0" modes="public car" walkFactor="0.75" costs="0.00"/>
    </person>
    <person id="58" depart="75.40">
        <personTrip from="gneE1" to="gneE0" modes="public car" walkFactor="0.75" costs="83.11"/>
    </person>
    <vehicle id="59_0" depart="triggered">
        <routeDistribution last="0">
            <route cost="0.00" probability="1.00000000" edges="gneE0 gneE1"/>
        </routeDistribution>
    </vehicle>
    <person id="59" depart="75.60">
        <personTrip from="gneE0" to="gneE1" modes="public car" walkFactor="0.75" costs="6.23"/>
    </person>
    <person id="60" depart="75.80">
        <personTrip from="gneE1" to="gneE1" modes="public car" walkFactor="0.75" costs="0.00"/>
    </person>
    <vehicle id="61_0" depart="triggered">
        <routeDistribution last="0">
            <route cost="0.00" probability="1.00000000" edges="gneE0 gneE1"/>
        </routeDistribution>
    </vehicle>
    <person id="61" depart="76.80">
        <personTrip from="gneE0" to="gneE1" modes="public car" walkFactor="0.75" costs="6.23"/>
    </person>
    <person id="62" depart="78.40">
        <personTrip from="gneE1" to="gneE1" modes="public car" walkFactor="0.75" costs="0.00"/>
    </person>
    <vehicle id="63_0" depart="triggered">
        <routeDistribution last="0">
            <route cost="0.00" probability="1.00000000" edges="gneE0 gneE1"/>
        </routeDistribution>
    </vehicle>
    <person id="63" depart="79.80">
        <personTrip from="gneE0" to="gneE1" modes="public car" walkFactor="0.75" costs="6.23"/>
    </person>
    <person id="64" depart="82.80">
        <personTrip from="gneE0" to="gneE0" modes="public car" walkFactor="0.75" costs="0.00"/>
    </person>
    <person id="65" depart="84.20">
        <personTrip from="gneE1" to="gneE0" modes="public car" walkFactor="0.75" costs="83.11"/>
    </person>
    <person id="66" depart="90.20">
        <personTrip from="gneE0" to="gneE0" modes="public car" walkFactor="0.75" costs="0.00"/>
    </person>
    <person id="67" depart="92.40">
        <personTrip from="gneE1" to="gneE0" modes="public car" walkFactor="0.75" costs="83.11"/>
    </person>
    <person id="68" depart="92.80">
        <personTrip from="gneE1" to="gneE0" modes="public car" walkFactor="0.75" costs="83.11"/>
    </person>
    <vehicle id="69_0" depart="triggered">
        <routeDistribution last="0">
            <route cost="0.00" probability="1.00000000" edges="gneE0 gneE1"/>
        </routeDistribution>
    </vehicle>
    <person id="69" depart="95.20">
        <personTrip from="gneE0" to="gneE1" modes="public car" walkFactor="0.75" costs="6.23"/>
    </person>
    <person id="70" depart="95.60">
        <personTrip from="gneE0" to="gneE0" modes="public car" walkFactor="0.75" costs="0.00"/>
    </person>
    <person id="71" depart="96.60">
        <personTrip from="gneE0" to="gneE0" modes="public car" walkFactor="0.75" costs="0.00"/>
    </person>
    <person id="72" depart="97.40">
        <personTrip from="gneE0" to="gneE0" modes="public car" walkFactor="0.75" costs="0.00"/>
    </person>
    <person id="73" depart="97.40">
        <personTrip from="gneE1" to="gneE0" modes="public car" walkFactor="0.75" costs="83.11"/>
    </person>
    <person id="74" depart="101.60">
        <personTrip from="gneE0" to="gneE0" modes="public car" walkFactor="0.75" costs="0.00"/>
    </person>
    <person id="75" depart="102.60">
        <personTrip from="gneE1" to="gneE0" modes="public car" walkFactor="0.75" costs="83.11"/>
    </person>
    <person id="76" depart="103.60">
        <personTrip from="gneE0" to="gneE0" modes="public car" walkFactor="0.75" costs="0.00"/>
    </person>
    <vehicle id="77_0" depart="triggered">
        <routeDistribution last="0">
            <route cost="0.00" probability="1.00000000" edges="gneE0 gneE1"/>
        </routeDistribution>
    </vehicle>
    <person id="77" depart="104.20">
        <personTrip from="gneE0" to="gneE1" modes="public car" walkFactor="0.75" costs="6.23"/>
    </person>
    <vehicle id="78_0" depart="triggered">
        <routeDistribution last="0">
            <route cost="0.00" probability="1.00000000" edges="gneE0 gneE1"/>
        </routeDistribution>
    </vehicle>
    <person id="78" depart="105.00">
        <personTrip from="gneE0" to="gneE1" modes="public car" walkFactor="0.75" costs="6.23"/>
    </person>
    <person id="79" depart="105.20">
        <personTrip from="gneE1" to="gneE0" modes="public car" walkFactor="0.75" costs="83.11"/>
    </person>
    <vehicle id="80_0" depart="triggered">
        <routeDistribution last="0">
            <route cost="0.00" probability="1.00000000" edges="gneE0 gneE1"/>
        </routeDistribution>
    </vehicle>
    <person id="80" depart="105.40">
        <personTrip from="gneE0" to="gneE1" modes="public car" walkFactor="0.75" costs="6.23"/>
    </person>
    <person id="81" depart="106.20">
        <personTrip from="gneE0" to="gneE0" modes="public car" walkFactor="0.75" costs="0.00"/>
    </person>
    <person id="82" depart="106.60">
        <personTrip from="gneE0" to="gneE0" modes="public car" walkFactor="0.75" costs="0.00"/>
    </person>
    <person id="83" depart="108.00">
        <personTrip from="gneE1" to="gneE0" modes="public car" walkFactor="0.75" costs="83.11"/>
    </person>
    <person id="84" depart="109.00">
        <personTrip from="gneE1" to="gneE0" modes="public car" walkFactor="0.75" costs="83.11"/>
    </person>
    <vehicle id="85_0" depart="triggered">
        <routeDistribution last="0">
            <route cost="0.00" probability="1.00000000" edges="gneE0 gneE1"/>
        </routeDistribution>
    </vehicle>
    <person id="85" depart="110.20">
        <personTrip from="gneE0" to="gneE1" modes="public car" walkFactor="0.75" costs="6.23"/>
    </person>
    <person id="86" depart="115.40">
        <personTrip from="gneE0" to="gneE0" modes="public car" walkFactor="0.75" costs="0.00"/>
    </person>
    <vehicle id="87_0" depart="triggered">
        <routeDistribution last="0">
            <route cost="0.00" probability="1.00000000" edges="gneE0 gneE1"/>
        </routeDistribution>
    </vehicle>
    <person id="87" depart="118.80">
        <personTrip from="gneE0" to="gneE1" modes="public car" walkFactor="0.75" costs="6.23"/>
    </person>
    <vehicle id="88_0" depart="triggered">
        <routeDistribution last="0">
            <route cost="0.00" probability="1.00000000" edges="gneE0 gneE1"/>
        </routeDistribution>
    </vehicle>
    <person id="88" depart="120.60">
        <personTrip from="gneE0" to="gneE1" modes="public car" walkFactor="0.75" costs="6.23"/>
    </person>
    <person id="89" depart="120.80">
        <personTrip from="gneE1" to="gneE1" modes="public car" walkFactor="0.75" costs="0.00"/>
    </person>
    <person id="90" depart="122.80">
        <personTrip from="gneE0" to="gneE0" modes="public car" walkFactor="0.75" costs="0.00"/>
    </person>
    <person id="91" depart="123.00">
        <personTrip from="gneE1" to="gneE0" modes="public car" walkFactor="0.75" costs="83.11"/>
    </person>
    <person id="92" depart="124.40">
        <personTrip from="gneE0" to="gneE0" modes="public car" walkFactor="0.75" costs="0.00"/>
    </person>
    <person id="93" depart="125.20">
        <personTrip from="gneE1" to="gneE0" modes="public car" walkFactor="0.75" costs="83.11"/>
    </person>
    <person id="94" depart="127.20">
        <personTrip from="gneE1" to="gneE0" modes="public car" walkFactor="0.75" costs="83.11"/>
    </person>
    <person id="95" depart="128.40">
        <personTrip from="gneE0" to="gneE0" modes="public car" walkFactor="0.75" costs="0.00"/>
    </person>
    <person id="96" depart="129.20">
        <personTrip from="gneE0" to="gneE0" modes="public car" walkFactor="0.75" costs="0.00"/>
    </person>
    <person id="97" depart="133.40">
        <personTrip from="gneE0" to="gneE0" modes="public car" walkFactor="0.75" costs="0.00"/>
    </person>
    <person id="98" depart="134.20">
        <personTrip from="gneE0" to="gneE0" modes="public car" walkFactor="0.75" costs="0.00"/>
    </person>
    <person id="99" depart="134.40">
        <personTrip from="gneE1" to="gneE0" modes="public car" walkFactor="0.75" costs="83.11"/>
    </person>
    <person id="100" depart="136.00">
        <personTrip from="gneE1" to="gneE0" modes="public car" walkFactor="0.75" costs="83.11"/>
    </person>
    <person id="101" depart="136.80">
        <personTrip from="gneE0" to="gneE0" modes="public car" walkFactor="0.75" costs="0.00"/>
    </person>
    <vehicle id="102_0" depart="triggered">
        <routeDistribution last="0">
            <route cost="0.00" probability="1.00000000" edges="gneE0 gneE1"/>
        </routeDistribution>
    </vehicle>
    <person id="102" depart="139.80">
        <personTrip from="gneE0" to="gneE1" modes="public car" walkFactor="0.75" costs="6.23"/>
    </person>
    <person id="103" depart="141.40">
        <personTrip from="gneE0" to="gneE0" modes="public car" walkFactor="0.75" costs="0.00"/>
    </person>
    <person id="104" depart="142.80">
        <personTrip from="gneE0" to="gneE0" modes="public car" walkFactor="0.75" costs="0.00"/>
    </person>
    <person id="105" depart="143.20">
        <personTrip from="gneE1" to="gneE1" modes="public car" walkFactor="0.75" costs="0.00"/>
    </person>
    <person id="106" depart="147.60">
        <personTrip from="gneE0" to="gneE0" modes="public car" walkFactor="0.75" costs="0.00"/>
    </person>
    <person id="107" depart="148.80">
        <personTrip from="gneE0" to="gneE0" modes="public car" walkFactor="0.75" costs="0.00"/>
    </person>
    <person id="108" depart="149.80">
        <personTrip from="gneE1" to="gneE1" modes="public car" walkFactor="0.75" costs="0.00"/>
    </person>
    <person id="109" depart="153.80">
        <personTrip from="gneE0" to="gneE0" modes="public car" walkFactor="0.75" costs="0.00"/>
    </person>
    <person id="110" depart="154.20">
        <personTrip from="gneE0" to="gneE0" modes="public car" walkFactor="0.75" costs="0.00"/>
    </person>
    <person id="111" depart="154.40">
        <personTrip from="gneE0" to="gneE0" modes="public car" walkFactor="0.75" costs="0.00"/>
    </person>
    <person id="112" depart="157.60">
        <personTrip from="gneE1" to="gneE0" modes="public car" walkFactor="0.75" costs="83.11"/>
    </person>
    <person id="113" depart="160.00">
        <personTrip from="gneE0" to="gneE0" modes="public car" walkFactor="0.75" costs="0.00"/>
    </person>
    <person id="114" depart="160.80">
        <personTrip from="gneE0" to="gneE0" modes="public car" walkFactor="0.75" costs="0.00"/>
    </person>
    <vehicle id="115_0" depart="triggered">
        <routeDistribution last="0">
            <route cost="0.00" probability="1.00000000" edges="gneE0 gneE1"/>
        </routeDistribution>
    </vehicle>
    <person id="115" depart="161.40">
        <personTrip from="gneE0" to="gneE1" modes="public car" walkFactor="0.75" costs="6.23"/>
    </person>
    <person id="116" depart="162.60">
        <personTrip from="gneE0" to="gneE0" modes="public car" walkFactor="0.75" costs="0.00"/>
    </person>
    <person id="117" depart="166.00">
        <personTrip from="gneE1" to="gneE0" modes="public car" walkFactor="0.75" costs="83.11"/>
    </person>
    <person id="118" depart="167.80">
        <personTrip from="gneE1" to="gneE0" modes="public car" walkFactor="0.75" costs="83.11"/>
    </person>
    <vehicle id="119_0" depart="triggered">
        <routeDistribution last="0">
            <route cost="0.00" probability="1.00000000" edges="gneE0 gneE1"/>
        </routeDistribution>
    </vehicle>
    <person id="119" depart="168.00">
        <personTrip from="gneE0" to="gneE1" modes="public car" walkFactor="0.75" costs="6.23"/>
    </person>
    <vehicle id="120_0" depart="triggered">
        <routeDistribution last="0">
            <route cost="0.00" probability="1.00000000" edges="gneE0 gneE1"/>
        </routeDistribution>
    </vehicle>
    <person id="120" depart="169.80">
        <personTrip from="gneE0" to="gneE1" modes="public car" walkFactor="0.75" costs="6.23"/>
    </person>
    <person id="121" depart="170.00">
        <personTrip from="gneE0" to="gneE0" modes="public car" walkFactor="0.75" costs="0.00"/>
    </person>
    <person id="122" depart="174.80">
        <personTrip from="gneE0" to="gneE0" modes="public car" walkFactor="0.75" costs="0.00"/>
    </person>
    <person id="123" depart="175.80">
        <personTrip from="gneE1" to="gneE1" modes="public car" walkFactor="0.75" costs="0.00"/>
    </person>
    <person id="124" depart="176.20">
        <personTrip from="gneE0" to="gneE0" modes="public car" walkFactor="0.75" costs="0.00"/>
    </person>
    <person id="125" depart="178.00">
        <personTrip from="gneE0" to="gneE0" modes="public car" walkFactor="0.75" costs="0.00"/>
    </person>
    <person id="126" depart="180.40">
        <personTrip from="gneE1" to="gneE1" modes="public car" walkFactor="0.75" costs="0.00"/>
    </person>
    <person id="127" depart="180.60">
        <personTrip from="gneE1" to="gneE0" modes="public car" walkFactor="0.75" costs="83.11"/>
    </person>
    <person id="128" depart="181.60">
        <personTrip from="gneE1" to="gneE0" modes="public car" walkFactor="0.75" costs="83.11"/>
    </person>
    <person id="129" depart="184.80">
        <personTrip from="gneE0" to="gneE0" modes="public car" walkFactor="0.75" costs="0.00"/>
    </person>
    <person id="130" depart="185.00">
        <personTrip from="gneE1" to="gneE0" modes="public car" walkFactor="0.75" costs="83.11"/>
    </person>
    <vehicle id="131_0" depart="triggered">
        <routeDistribution last="0">
            <route cost="0.00" probability="1.00000000" edges="gneE0 gneE1"/>
        </routeDistribution>
    </vehicle>
    <person id="131" depart="185.00">
        <personTrip from="gneE0" to="gneE1" modes="public car" walkFactor="0.75" costs="6.23"/>
    </person>
    <person id="132" depart="185.80">
        <personTrip from="gneE0" to="gneE0" modes="public car" walkFactor="0.75" costs="0.00"/>
    </person>
    <person id="133" depart="189.80">
        <personTrip from="gneE0" to="gneE0" modes="public car" walkFactor="0.75" costs="0.00"/>
    </person>
    <person id="134" depart="189.80">
        <personTrip from="gneE1" to="gneE0" modes="public car" walkFactor="0.75" costs="83.11"/>
    </person>
    <vehicle id="135_0" depart="triggered">
        <routeDistribution last="0">
            <route cost="0.00" probability="1.00000000" edges="gneE0 gneE1"/>
        </routeDistribution>
    </vehicle>
    <person id="135" depart="191.20">
        <personTrip from="gneE0" to="gneE1" modes="public car" walkFactor="0.75" costs="6.23"/>
    </person>
    <person id="136" depart="193.60">
        <personTrip from="gneE0" to="gneE0" modes="public car" walkFactor="0.75" costs="0.00"/>
    </person>
    <person id="137" depart="195.00">
        <personTrip from="gneE0" to="gneE0" modes="public car" walkFactor="0.75" costs="0.00"/>
    </person>
    <person id="138" depart="195.60">
        <personTrip from="gneE0" to="gneE0" modes="public car" walkFactor="0.75" costs="0.00"/>
    </person>
    <person id="139" depart="198.20">
        <personTrip from="gneE1" to="gneE0" modes="public car" walkFactor="0.75" costs="83.11"/>
    </person>
    <person id="140" depart="198.20">
        <personTrip from="gneE0" to="gneE0" modes="public car" walkFactor="0.75" costs="0.00"/>
    </person>
    <person id="141" depart="198.60">
        <personTrip from="gneE1" to="gneE1" modes="public car" walkFactor="0.75" costs="0.00"/>
    </person>
    <person id="142" depart="202.40">
        <personTrip from="gneE0" to="gneE0" modes="public car" walkFactor="0.75" costs="0.00"/>
    </person>
    <person id="143" depart="204.80">
        <personTrip from="gneE0" to="gneE0" modes="public car" walkFactor="0.75" costs="0.00"/>
    </person>
    <vehicle id="144_0" depart="triggered">
        <routeDistribution last="0">
            <route cost="0.00" probability="1.00000000" edges="gneE0 gneE1"/>
        </routeDistribution>
    </vehicle>
    <person id="144" depart="205.00">
        <personTrip from="gneE0" to="gneE1" modes="public car" walkFactor="0.75" costs="6.23"/>
    </person>
    <vehicle id="145_0" depart="triggered">
        <routeDistribution last="0">
            <route cost="0.00" probability="1.00000000" edges="gneE0 gneE1"/>
        </routeDistribution>
    </vehicle>
    <person id="145" depart="205.20">
        <personTrip from="gneE0" to="gneE1" modes="public car" walkFactor="0.75" costs="6.23"/>
    </person>
    <vehicle id="146_0" depart="triggered">
        <routeDistribution last="0">
            <route cost="0.00" probability="1.00000000" edges="gneE0 gneE1"/>
        </routeDistribution>
    </vehicle>
    <person id="146" depart="207.60">
        <personTrip from="gneE0" to="gneE1" modes="public car" walkFactor="0.75" costs="6.23"/>
    </person>
    <person id="147" depart="208.40">
        <personTrip from="gneE0" to="gneE0" modes="public car" walkFactor="0.75" costs="0.00"/>
    </person>
    <person id="148" depart="209.00">
        <personTrip from="gneE1" to="gneE0" modes="public car" walkFactor="0.75" costs="83.11"/>
    </person>
    <person id="149" depart="210.60">