<?xml version="1.0" encoding="UTF-8"?>

<!-- generated on ven 24 mar 2023, 16:29:41 by Eclipse SUMO GUI Version 1.8.0
-->

<configuration xmlns:xsi="http://www.w3.org/2001/XMLSchema-instance" xsi:noNamespaceSchemaLocation="http://sumo.dlr.de/xsd/sumoConfiguration.xsd">

    <input>
        <net-file value="/home/toore/Tirocinio_SUMO/Scenario/Prova_out/Prova.net.xml"/>
        <route-files value="/home/toore/Tirocinio_SUMO/Scenario/Modena/peds.rou.xml"/>
    </input>

</configuration>
