<?xml version="1.0" encoding="UTF-8"?>

<!-- generated on dom 16 ott 2022, 19:52:57 by Eclipse SUMO netedit Version 1.8.0
<configuration xmlns:xsi="http://www.w3.org/2001/XMLSchema-instance" xsi:noNamespaceSchemaLocation="http://sumo.dlr.de/xsd/netconvertConfiguration.xsd">

    <input>
        <sumo-net-file value="/home/toore/Scrivania/Tirocinio/Prova_out/Prova.net.xml"/>
    </input>

    <output>
        <output-file value="/home/toore/Scrivania/Tirocinio/Prova_out/Prova.net.xml"/>
    </output>

    <processing>
        <geometry.min-radius.fix.railways value="false"/>
        <geometry.max-grade.fix value="false"/>
        <offset.disable-normalization value="true"/>
        <lefthand value="false"/>
    </processing>

    <junctions>
        <no-internal-links value="true"/>
        <no-turnarounds value="true"/>
        <junctions.corner-detail value="5"/>
        <junctions.limit-turn-speed value="5.5"/>
        <rectangular-lane-cut value="false"/>
    </junctions>

    <pedestrian>
        <walkingareas value="false"/>
    </pedestrian>

    <report>
        <aggregate-warnings value="5"/>
    </report>

</configuration>
-->

<net version="1.6" junctionCornerDetail="5" limitTurnSpeed="5.50" xmlns:xsi="http://www.w3.org/2001/XMLSchema-instance" xsi:noNamespaceSchemaLocation="http://sumo.dlr.de/xsd/net_file.xsd">

    <location netOffset="0.00,0.00" convBoundary="-8.77,59.33,108.55,83.46" origBoundary="-10000000000.00,-10000000000.00,10000000000.00,10000000000.00" projParameter="!"/>

    <edge id="gneE0" from="gneJ0" to="gneJ1" priority="-1">
        <lane id="gneE0_0" index="0" speed="13.89" length="86.57" shape="-8.77,57.73 77.80,57.73"/>
    </edge>
    <edge id="gneE1" from="gneJ1" to="gneJ2" priority="-1">
        <lane id="gneE1_0" index="0" speed="13.89" length="39.09" shape="78.79,58.07 109.54,82.20"/>
    </edge>

    <tlLogic id="gneJ1" type="static" programID="0" offset="0">
        <phase duration="8"  state="G"/>
        <phase duration="2"  state="y"/>
        <phase duration="5"  state="r"/>
    </tlLogic>

    <junction id="gneJ0" type="dead_end" x="-8.77" y="59.33" incLanes="" intLanes="" shape="-8.77,59.33 -8.77,56.13"/>
    <junction id="gneJ1" type="traffic_light" x="77.80" y="59.33" incLanes="gneE0_0" intLanes="" shape="77.80,59.33 79.78,56.81 79.13,56.35 78.87,56.23 78.59,56.16 78.25,56.14 77.80,56.13">
        <request index="0" response="0" foes="0"/>
    </junction>
    <junction id="gneJ2" type="dead_end" x="108.55" y="83.46" incLanes="gneE1_0" intLanes="" shape="110.53,80.94 108.55,83.46"/>

    <connection from="gneE0" to="gneE1" fromLane="0" toLane="0" tl="gneJ1" linkIndex="0" dir="s" state="O"/>

</net>
