<?xml version="1.0" encoding="UTF-8"?>

<!-- generated on 2022-12-02 16:46:47.384174 by randomTrips.py v1_15_0+0682-ef022823415
<configuration>
    <end value="1000"/>
    <length value="True"/>
    <max-distance value="800.0"/>
    <net-file value="/home/toore/Scrivania/Tirocinio/Prova_out/Prova.net.xml"/>
    <pedestrians value="True"/>
    <period value="1.4"/>
    <random value="True"/>
    <random-depart value="True"/>
    <route-file value="peds.rou.xml"/>
    <seed value="10000"/>
    <trip-attributes value="type=&quot;DEFAULT_PEDTYPE&quot;"/>
</configuration>
-->

<routes xmlns:xsi="http://www.w3.org/2001/XMLSchema-instance" xsi:noNamespaceSchemaLocation="http://sumo.dlr.de/xsd/routes_file.xsd">
    <person id="0" depart="0.80" type="DEFAULT_PEDTYPE">
        <walk from="gneE0" to="gneE0"/>
    </person>
    <person id="1" depart="2.20" type="DEFAULT_PEDTYPE">
        <walk from="gneE0" to="gneE0"/>
    </person>
    <person id="2" depart="5.80" type="DEFAULT_PEDTYPE">
        <walk from="gneE0" to="gneE0"/>
    </person>
    <person id="3" depart="6.40" type="DEFAULT_PEDTYPE">
        <walk from="gneE1" to="gneE1"/>
    </person>
    <person id="4" depart="7.60" type="DEFAULT_PEDTYPE">
        <walk from="gneE1" to="gneE0"/>
    </person>
    <person id="5" depart="8.20" type="DEFAULT_PEDTYPE">
        <walk from="gneE0" to="gneE1"/>
    </person>
    <person id="6" depart="9.40" type="DEFAULT_PEDTYPE">
        <walk from="gneE1" to="gneE0"/>
    </person>
    <person id="7" depart="9.80" type="DEFAULT_PEDTYPE">
        <walk from="gneE1" to="gneE0"/>
    </person>
    <person id="8" depart="10.80" type="DEFAULT_PEDTYPE">
        <walk from="gneE1" to="gneE0"/>
    </person>
    <person id="9" depart="13.40" type="DEFAULT_PEDTYPE">
        <walk from="gneE1" to="gneE1"/>
    </person>
    <person id="10" depart="14.20" type="DEFAULT_PEDTYPE">
        <walk from="gneE0" to="gneE1"/>
    </person>
    <person id="11" depart="17.20" type="DEFAULT_PEDTYPE">
        <walk from="gneE1" to="gneE0"/>
    </person>
    <person id="12" depart="17.80" type="DEFAULT_PEDTYPE">
        <walk from="gneE0" to="gneE0"/>
    </person>
    <person id="13" depart="19.00" type="DEFAULT_PEDTYPE">
        <walk from="gneE0" to="gneE1"/>
    </person>
    <person id="14" depart="23.80" type="DEFAULT_PEDTYPE">
        <walk from="gneE1" to="gneE0"/>
    </person>
    <person id="15" depart="25.20" type="DEFAULT_PEDTYPE">
        <walk from="gneE0" to="gneE1"/>
    </person>
    <person id="16" depart="26.20" type="DEFAULT_PEDTYPE">
        <walk from="gneE0" to="gneE0"/>
    </person>
    <person id="17" depart="27.00" type="DEFAULT_PEDTYPE">
        <walk from="gneE1" to="gneE0"/>
    </person>
    <person id="18" depart="28.60" type="DEFAULT_PEDTYPE">
        <walk from="gneE0" to="gneE1"/>
    </person>
    <person id="19" depart="29.00" type="DEFAULT_PEDTYPE">
        <walk from="gneE1" to="gneE0"/>
    </person>
    <person id="20" depart="31.60" type="DEFAULT_PEDTYPE">
        <walk from="gneE0" to="gneE1"/>
    </person>
    <person id="21" depart="35.00" type="DEFAULT_PEDTYPE">
        <walk from="gneE0" to="gneE1"/>
    </person>
    <person id="22" depart="35.60" type="DEFAULT_PEDTYPE">
        <walk from="gneE0" to="gneE1"/>
    </person>
    <person id="23" depart="38.40" type="DEFAULT_PEDTYPE">
        <walk from="gneE0" to="gneE1"/>
    </person>
    <person id="24" depart="39.00" type="DEFAULT_PEDTYPE">
        <walk from="gneE0" to="gneE0"/>
    </person>
    <person id="25" depart="41.20" type="DEFAULT_PEDTYPE">
        <walk from="gneE0" to="gneE0"/>
    </person>
    <person id="26" depart="42.80" type="DEFAULT_PEDTYPE">
        <walk from="gneE1" to="gneE0"/>
    </person>
    <person id="27" depart="43.20" type="DEFAULT_PEDTYPE">
        <walk from="gneE0" to="gneE0"/>
    </person>
    <person id="28" depart="43.40" type="DEFAULT_PEDTYPE">
        <walk from="gneE0" to="gneE0"/>
    </person>
    <person id="29" depart="46.60" type="DEFAULT_PEDTYPE">
        <walk from="gneE0" to="gneE1"/>
    </person>
    <person id="30" depart="49.20" type="DEFAULT_PEDTYPE">
        <walk from="gneE1" to="gneE0"/>
    </person>
    <person id="31" depart="49.60" type="DEFAULT_PEDTYPE">
        <walk from="gneE0" to="gneE0"/>
    </person>
    <person id="32" depart="52.20" type="DEFAULT_PEDTYPE">
        <walk from="gneE1" to="gneE0"/>
    </person>
    <person id="33" depart="54.60" type="DEFAULT_PEDTYPE">
        <walk from="gneE0" to="gneE0"/>
    </person>
    <person id="34" depart="56.60" type="DEFAULT_PEDTYPE">
        <walk from="gneE1" to="gneE1"/>
    </person>
    <person id="35" depart="60.00" type="DEFAULT_PEDTYPE">
        <walk from="gneE0" to="gneE0"/>
    </person>
    <person id="36" depart="62.60" type="DEFAULT_PEDTYPE">
        <walk from="gneE0" to="gneE0"/>
    </person>
    <person id="37" depart="62.80" type="DEFAULT_PEDTYPE">
        <walk from="gneE1" to="gneE1"/>
    </person>
    <person id="38" depart="64.00" type="DEFAULT_PEDTYPE">
        <walk from="gneE0" to="gneE1"/>
    </person>
    <person id="39" depart="65.60" type="DEFAULT_PEDTYPE">
        <walk from="gneE1" to="gneE1"/>
    </person>
    <person id="40" depart="67.80" type="DEFAULT_PEDTYPE">
        <walk from="gneE1" to="gneE0"/>
    </person>
    <person id="41" depart="69.60" type="DEFAULT_PEDTYPE">
        <walk from="gneE1" to="gneE0"/>
    </person>
    <person id="42" depart="71.00" type="DEFAULT_PEDTYPE">
        <walk from="gneE0" to="gneE1"/>
    </person>
    <person id="43" depart="72.20" type="DEFAULT_PEDTYPE">
        <walk from="gneE1" to="gneE0"/>
    </person>
    <person id="44" depart="73.60" type="DEFAULT_PEDTYPE">
        <walk from="gneE0" to="gneE1"/>
    </person>
    <person id="45" depart="74.80" type="DEFAULT_PEDTYPE">
        <walk from="gneE1" to="gneE1"/>
    </person>
    <person id="46" depart="76.40" type="DEFAULT_PEDTYPE">
        <walk from="gneE0" to="gneE1"/>
    </person>
    <person id="47" depart="79.00" type="DEFAULT_PEDTYPE">
        <walk from="gneE0" to="gneE1"/>
    </person>
    <person id="48" depart="79.80" type="DEFAULT_PEDTYPE">
        <walk from="gneE1" to="gneE0"/>
    </person>
    <person id="49" depart="82.20" type="DEFAULT_PEDTYPE">
        <walk from="gneE1" to="gneE0"/>
    </person>
    <person id="50" depart="82.20" type="DEFAULT_PEDTYPE">
        <walk from="gneE0" to="gneE1"/>
    </person>
    <person id="51" depart="83.80" type="DEFAULT_PEDTYPE">
        <walk from="gneE1" to="gneE0"/>
    </person>
    <person id="52" depart="84.20" type="DEFAULT_PEDTYPE">
        <walk from="gneE0" to="gneE0"/>
    </person>
    <person id="53" depart="85.80" type="DEFAULT_PEDTYPE">
        <walk from="gneE0" to="gneE0"/>
    </person>
    <person id="54" depart="85.80" type="DEFAULT_PEDTYPE">
        <walk from="gneE1" to="gneE0"/>
    </person>
    <person id="55" depart="86.80" type="DEFAULT_PEDTYPE">
        <walk from="gneE0" to="gneE0"/>
    </person>
    <person id="56" depart="89.40" type="DEFAULT_PEDTYPE">
        <walk from="gneE0" to="gneE1"/>
    </person>
    <person id="57" depart="90.20" type="DEFAULT_PEDTYPE">
        <walk from="gneE0" to="gneE0"/>
    </person>
    <person id="58" depart="90.40" type="DEFAULT_PEDTYPE">
        <walk from="gneE0" to="gneE0"/>
    </person>
    <person id="59" depart="92.20" type="DEFAULT_PEDTYPE">
        <walk from="gneE0" to="gneE0"/>
    </person>
    <person id="60" depart="92.20" type="DEFAULT_PEDTYPE">
        <walk from="gneE0" to="gneE0"/>
    </person>
    <person id="61" depart="95.00" type="DEFAULT_PEDTYPE">
        <walk from="gneE0" to="gneE0"/>
    </person>
    <person id="62" depart="97.00" type="DEFAULT_PEDTYPE">
        <walk from="gneE0" to="gneE0"/>
    </person>
    <person id="63" depart="97.60" type="DEFAULT_PEDTYPE">
        <walk from="gneE1" to="gneE1"/>
    </person>
    <person id="64" depart="98.20" type="DEFAULT_PEDTYPE">
        <walk from="gneE0" to="gneE0"/>
    </person>
    <person id="65" depart="100.60" type="DEFAULT_PEDTYPE">
        <walk from="gneE1" to="gneE0"/>
    </person>
    <person id="66" depart="105.60" type="DEFAULT_PEDTYPE">
        <walk from="gneE0" to="gneE1"/>
    </person>
    <person id="67" depart="105.80" type="DEFAULT_PEDTYPE">
        <walk from="gneE0" to="gneE0"/>
    </person>
    <person id="68" depart="109.20" type="DEFAULT_PEDTYPE">
        <walk from="gneE0" to="gneE0"/>
    </person>
    <person id="69" depart="111.00" type="DEFAULT_PEDTYPE">
        <walk from="gneE0" to="gneE0"/>
    </person>
    <person id="70" depart="111.20" type="DEFAULT_PEDTYPE">
        <walk from="gneE0" to="gneE0"/>
    </person>
    <person id="71" depart="112.80" type="DEFAULT_PEDTYPE">
        <walk from="gneE1" to="gneE1"/>
    </person>
    <person id="72" depart="113.40" type="DEFAULT_PEDTYPE">
        <walk from="gneE0" to="gneE0"/>
    </person>
    <person id="73" depart="113.40" type="DEFAULT_PEDTYPE">
        <walk from="gneE1" to="gneE0"/>
    </person>
    <person id="74" depart="115.20" type="DEFAULT_PEDTYPE">
        <walk from="gneE0" to="gneE0"/>
    </person>
    <person id="75" depart="117.40" type="DEFAULT_PEDTYPE">
        <walk from="gneE0" to="gneE0"/>
    </person>
    <person id="76" depart="118.00" type="DEFAULT_PEDTYPE">
        <walk from="gneE0" to="gneE1"/>
    </person>
    <person id="77" depart="118.20" type="DEFAULT_PEDTYPE">
        <walk from="gneE0" to="gneE0"/>
    </person>
    <person id="78" depart="119.00" type="DEFAULT_PEDTYPE">
        <walk from="gneE0" to="gneE0"/>
    </person>
    <person id="79" depart="119.40" type="DEFAULT_PEDTYPE">
        <walk from="gneE1" to="gneE0"/>
    </person>
    <person id="80" depart="120.40" type="DEFAULT_PEDTYPE">
        <walk from="gneE1" to="gneE0"/>
    </person>
    <person id="81" depart="125.00" type="DEFAULT_PEDTYPE">
        <walk from="gneE0" to="gneE0"/>
    </person>
    <person id="82" depart="126.20" type="DEFAULT_PEDTYPE">
        <walk from="gneE0" to="gneE1"/>
    </person>
    <person id="83" depart="126.40" type="DEFAULT_PEDTYPE">
        <walk from="gneE0" to="gneE0"/>
    </person>
    <person id="84" depart="127.20" type="DEFAULT_PEDTYPE">
        <walk from="gneE0" to="gneE1"/>
    </person>
    <person id="85" depart="127.60" type="DEFAULT_PEDTYPE">
        <walk from="gneE1" to="gneE0"/>
    </person>
    <person id="86" depart="129.20" type="DEFAULT_PEDTYPE">
        <walk from="gneE0" to="gneE0"/>
    </person>
    <person id="87" depart="134.60" type="DEFAULT_PEDTYPE">
        <walk from="gneE0" to="gneE1"/>
    </person>
    <person id="88" depart="134.60" type="DEFAULT_PEDTYPE">
        <walk from="gneE0" to="gneE0"/>
    </person>
    <person id="89" depart="137.00" type="DEFAULT_PEDTYPE">
        <walk from="gneE1" to="gneE0"/>
    </person>
    <person id="90" depart="137.80" type="DEFAULT_PEDTYPE">
        <walk from="gneE0" to="gneE0"/>
    </person>
    <person id="91" depart="138.40" type="DEFAULT_PEDTYPE">
        <walk from="gneE0" to="gneE1"/>
    </person>
    <person id="92" depart="140.20" type="DEFAULT_PEDTYPE">
        <walk from="gneE0" to="gneE0"/>
    </person>
    <person id="93" depart="141.20" type="DEFAULT_PEDTYPE">
        <walk from="gneE0" to="gneE0"/>
    </person>
    <person id="94" depart="144.80" type="DEFAULT_PEDTYPE">
        <walk from="gneE0" to="gneE0"/>
    </person>
    <person id="95" depart="147.40" type="DEFAULT_PEDTYPE">
        <walk from="gneE0" to="gneE1"/>
    </person>
    <person id="96" depart="148.00" type="DEFAULT_PEDTYPE">
        <walk from="gneE1" to="gneE0"/>
    </person>
    <person id="97" depart="149.60" type="DEFAULT_PEDTYPE">
        <walk from="gneE0" to="gneE1"/>
    </person>
    <person id="98" depart="150.00" type="DEFAULT_PEDTYPE">
        <walk from="gneE0" to="gneE1"/>
    </person>
    <person id="99" depart="152.00" type="DEFAULT_PEDTYPE">
        <walk from="gneE1" to="gneE1"/>
    </person>
    <person id="100" depart="154.00" type="DEFAULT_PEDTYPE">
        <walk from="gneE0" to="gneE0"/>
    </person>
    <person id="101" depart="155.20" type="DEFAULT_PEDTYPE">
        <walk from="gneE0" to="gneE1"/>
    </person>
    <person id="102" depart="156.00" type="DEFAULT_PEDTYPE">
        <walk from="gneE1" to="gneE0"/>
    </person>
    <person id="103" depart="158.60" type="DEFAULT_PEDTYPE">
        <walk from="gneE0" to="gneE0"/>
    </person>
    <person id="104" depart="160.60" type="DEFAULT_PEDTYPE">
        <walk from="gneE0" to="gneE0"/>
    </person>
    <person id="105" depart="161.00" type="DEFAULT_PEDTYPE">
        <walk from="gneE0" to="gneE0"/>
    </person>
    <person id="106" depart="161.00" type="DEFAULT_PEDTYPE">
        <walk from="gneE0" to="gneE0"/>
    </person>
    <person id="107" depart="163.80" type="DEFAULT_PEDTYPE">
        <walk from="gneE1" to="gneE0"/>
    </person>
    <person id="108" depart="166.40" type="DEFAULT_PEDTYPE">
        <walk from="gneE1" to="gneE0"/>
    </person>
    <person id="109" depart="169.20" type="DEFAULT_PEDTYPE">
        <walk from="gneE0" to="gneE0"/>
    </person>
    <person id="110" depart="172.40" type="DEFAULT_PEDTYPE">
        <walk from="gneE0" to="gneE0"/>
    </person>
    <person id="111" depart="172.40" type="DEFAULT_PEDTYPE">
        <walk from="gneE0" to="gneE1"/>
    </person>
    <person id="112" depart="174.80" type="DEFAULT_PEDTYPE">
        <walk from="gneE1" to="gneE0"/>
    </person>
    <person id="113" depart="176.20" type="DEFAULT_PEDTYPE">
        <walk from="gneE1" to="gneE0"/>
    </person>
    <person id="114" depart="176.60" type="DEFAULT_PEDTYPE">
        <walk from="gneE0" to="gneE0"/>
    </person>
    <person id="115" depart="177.00" type="DEFAULT_PEDTYPE">
        <walk from="gneE0" to="gneE0"/>
    </person>
    <person id="116" depart="178.00" type="DEFAULT_PEDTYPE">
        <walk from="gneE1" to="gneE0"/>
    </person>
    <person id="117" depart="178.80" type="DEFAULT_PEDTYPE">
        <walk from="gneE0" to="gneE1"/>
    </person>
    <person id="118" depart="180.80" type="DEFAULT_PEDTYPE">
        <walk from="gneE0" to="gneE0"/>
    </person>
    <person id="119" depart="185.20" type="DEFAULT_PEDTYPE">
        <walk from="gneE0" to="gneE0"/>
    </person>
    <person id="120" depart="186.80" type="DEFAULT_PEDTYPE">
        <walk from="gneE0" to="gneE1"/>
    </person>
    <person id="121" depart="187.40" type="DEFAULT_PEDTYPE">
        <walk from="gneE0" to="gneE0"/>
    </person>
    <person id="122" depart="188.80" type="DEFAULT_PEDTYPE">
        <walk from="gneE0" to="gneE0"/>
    </person>
    <person id="123" depart="189.40" type="DEFAULT_PEDTYPE">
        <walk from="gneE0" to="gneE1"/>
    </person>
    <person id="124" depart="189.60" type="DEFAULT_PEDTYPE">
        <walk from="gneE1" to="gneE0"/>
    </person>
    <person id="125" depart="189.80" type="DEFAULT_PEDTYPE">
        <walk from="gneE0" to="gneE1"/>
    </person>
    <person id="126" depart="190.00" type="DEFAULT_PEDTYPE">
        <walk from="gneE0" to="gneE0"/>
    </person>
    <person id="127" depart="191.20" type="DEFAULT_PEDTYPE">
        <walk from="gneE0" to="gneE0"/>
    </person>
    <person id="128" depart="191.60" type="DEFAULT_PEDTYPE">
        <walk from="gneE0" to="gneE0"/>
    </person>
    <person id="129" depart="191.80" type="DEFAULT_PEDTYPE">
        <walk from="gneE0" to="gneE0"/>
    </person>
    <person id="130" depart="193.20" type="DEFAULT_PEDTYPE">
        <walk from="gneE0" to="gneE0"/>
    </person>
    <person id="131" depart="195.40" type="DEFAULT_PEDTYPE">
        <walk from="gneE0" to="gneE1"/>
    </person>
    <person id="132" depart="196.60" type="DEFAULT_PEDTYPE">
        <walk from="gneE0" to="gneE0"/>
    </person>
    <person id="133" depart="198.60" type="DEFAULT_PEDTYPE">
        <walk from="gneE1" to="gneE0"/>
    </person>
    <person id="134" depart="198.60" type="DEFAULT_PEDTYPE">
        <walk from="gneE0" to="gneE0"/>
    </person>
    <person id="135" depart="199.00" type="DEFAULT_PEDTYPE">
        <walk from="gneE0" to="gneE1"/>
    </person>
    <person id="136" depart="201.60" type="DEFAULT_PEDTYPE">
        <walk from="gneE1" to="gneE1"/>
    </person>
    <person id="137" depart="202.40" type="DEFAULT_PEDTYPE">
        <walk from="gneE0" to="gneE0"/>
    </person>
    <person id="138" depart="202.40" type="DEFAULT_PEDTYPE">
        <walk from="gneE0" to="gneE0"/>
    </person>
    <person id="139" depart="203.20" type="DEFAULT_PEDTYPE">
        <walk from="gneE0" to="gneE1"/>
    </person>
    <person id="140" depart="204.00" type="DEFAULT_PEDTYPE">
        <walk from="gneE1" to="gneE0"/>
    </person>
    <person id="141" depart="205.60" type="DEFAULT_PEDTYPE">
        <walk from="gneE0" to="gneE0"/>
    </person>
    <person id="142" depart="205.80" type="DEFAULT_PEDTYPE">
        <walk from="gneE1" to="gneE0"/>
    </person>
    <person id="143" depart="206.00" type="DEFAULT_PEDTYPE">
        <walk from="gneE0" to="gneE0"/>
    </person>
    <person id="144" depart="206.00" type="DEFAULT_PEDTYPE">
        <walk from="gneE0" to="gneE0"/>
    </person>
    <person id="145" depart="207.60" type="DEFAULT_PEDTYPE">
        <walk from="gneE0" to="gneE1"/>
    </person>
    <person id="146" depart="207.60" type="DEFAULT_PEDTYPE">
        <walk from="gneE0" to="gneE0"/>
    </person>
    <person id="147" depart="209.40" type="DEFAULT_PEDTYPE">
        <walk from="gneE0" to="gneE1"/>
    </person>
    <person id="148" depart="210.20" type="DEFAULT_PEDTYPE">
        <walk from="gneE0" to="gneE0"/>
    </person>
    <person id="149" depart="210.60" type="DEFAULT_PEDTYPE">
        <walk from="gneE1" to="gneE0"/>
    </person>
    <person id="150" depart="212.20" type="DEFAULT_PEDTYPE">
        <walk from="gneE0" to="gneE1"/>
    </person>
    <person id="151" depart="214.20" type="DEFAULT_PEDTYPE">
        <walk from="gneE0" to="gneE0"/>
    </person>
    <person id="152" depart="215.40" type="DEFAULT_PEDTYPE">
        <walk from="gneE1" to="gneE1"/>
    </person>
    <person id="153" depart="215.60" type="DEFAULT_PEDTYPE">
        <walk from="gneE0" to="gneE0"/>
    </person>
    <person id="154" depart="222.40" type="DEFAULT_PEDTYPE">
        <walk from="gneE0" to="gneE1"/>
    </person>
    <person id="155" depart="223.00" type="DEFAULT_PEDTYPE">
        <walk from="gneE0" to="gneE1"/>
    </person>
    <person id="156" depart="223.20" type="DEFAULT_PEDTYPE">
        <walk from="gneE1" to="gneE1"/>
    </person>
    <person id="157" depart="224.60" type="DEFAULT_PEDTYPE">
        <walk from="gneE0" to="gneE0"/>
    </person>
    <person id="158" depart="224.80" type="DEFAULT_PEDTYPE">
        <walk from="gneE0" to="gneE0"/>
    </person>
    <person id="159" depart="227.40" type="DEFAULT_PEDTYPE">
        <walk from="gneE0" to="gneE0"/>
    </person>
    <person id="160" depart="227.40" type="DEFAULT_PEDTYPE">
        <walk from="gneE0" to="gneE1"/>
    </person>
    <person id="161" depart="231.40" type="DEFAULT_PEDTYPE">
        <walk from="gneE1" to="gneE0"/>
    </person>
    <person id="162" depart="231.80" type="DEFAULT_PEDTYPE">
        <walk from="gneE0" to="gneE1"/>
    </person>
    <person id="163" depart="234.40" type="DEFAULT_PEDTYPE">
        <walk from="gneE0" to="gneE0"/>
    </person>
    <person id="164" depart="236.60" type="DEFAULT_PEDTYPE">
        <walk from="gneE0" to="gneE1"/>
    </person>
    <person id="165" depart="238.40" type="DEFAULT_PEDTYPE">
        <walk from="gneE0" to="gneE0"/>
    </person>
    <person id="166" depart="239.40" type="DEFAULT_PEDTYPE">
        <walk from="gneE1" to="gneE0"/>
    </person>
    <person id="167" depart="240.20" type="DEFAULT_PEDTYPE">
        <walk from="gneE0" to="gneE0"/>
    </person>
    <person id="168" depart="242.20" type="DEFAULT_PEDTYPE">
        <walk from="gneE0" to="gneE0"/>
    </person>
    <person id="169" depart="245.20" type="DEFAULT_PEDTYPE">
        <walk from="gneE1" to="gneE0"/>
    </person>
    <person id="170" depart="245.40" type="DEFAULT_PEDTYPE">
        <walk from="gneE0" to="gneE0"/>
    </person>
    <person id="171" depart="246.20" type="DEFAULT_PEDTYPE">
        <walk from="gneE0" to="gneE0"/>
    </person>
    <person id="172" depart="248.60" type="DEFAULT_PEDTYPE">
        <walk from="gneE0" to="gneE0"/>
    </person>
    <person id="173" depart="249.60" type="DEFAULT_PEDTYPE">
        <walk from="gneE0" to="gneE0"/>
    </person>
    <person id="174" depart="250.20" type="DEFAULT_PEDTYPE">
        <walk from="gneE0" to="gneE0"/>
    </person>
    <person id="175" depart="252.80" type="DEFAULT_PEDTYPE">
        <walk from="gneE0" to="gneE0"/>
    </person>
    <person id="176" depart="256.20" type="DEFAULT_PEDTYPE">
        <walk from="gneE1" to="gneE0"/>
    </person>
    <person id="177" depart="256.80" type="DEFAULT_PEDTYPE">
        <walk from="gneE0" to="gneE0"/>
    </person>
    <person id="178" depart="257.80" type="DEFAULT_PEDTYPE">
        <walk from="gneE1" to="gneE1"/>
    </person>
    <person id="179" depart="258.20" type="DEFAULT_PEDTYPE">
        <walk from="gneE0" to="gneE0"/>
    </person>
    <person id="180" depart="259.00" type="DEFAULT_PEDTYPE">
        <walk from="gneE1" to="gneE0"/>
    </person>
    <person id="181" depart="263.00" type="DEFAULT_PEDTYPE">
        <walk from="gneE0" to="gneE1"/>
    </person>
    <person id="182" depart="264.20" type="DEFAULT_PEDTYPE">
        <walk from="gneE0" to="gneE0"/>
    </person>
    <person id="183" depart="264.40" type="DEFAULT_PEDTYPE">
        <walk from="gneE1" to="gneE0"/>
    </person>
    <person id="184" depart="265.00" type="DEFAULT_PEDTYPE">
        <walk from="gneE1" to="gneE1"/>
    </person>
    <person id="185" depart="266.00" type="DEFAULT_PEDTYPE">
        <walk from="gneE0" to="gneE0"/>
    </person>
    <person id="186" depart="268.40" type="DEFAULT_PEDTYPE">
        <walk from="gneE0" to="gneE1"/>
    </person>
    <person id="187" depart="269.20" type="DEFAULT_PEDTYPE">
        <walk from="gneE1" to="gneE0"/>
    </person>
    <person id="188" depart="271.80" type="DEFAULT_PEDTYPE">
        <walk from="gneE0" to="gneE0"/>
    </person>
    <person id="189" depart="271.80" type="DEFAULT_PEDTYPE">
        <walk from="gneE0" to="gneE0"/>
    </person>
    <person id="190" depart="275.20" type="DEFAULT_PEDTYPE">
        <walk from="gneE0" to="gneE1"/>
    </person>
    <person id="191" depart="278.20" type="DEFAULT_PEDTYPE">
        <walk from="gneE0" to="gneE1"/>
    </person>
    <person id="192" depart="281.40" type="DEFAULT_PEDTYPE">
        <walk from="gneE0" to="gneE0"/>
    </person>
    <person id="193" depart="281.60" type="DEFAULT_PEDTYPE">
        <walk from="gneE0" to="gneE0"/>
    </person>
    <person id="194" depart="282.20" type="DEFAULT_PEDTYPE">
        <walk from="gneE1" to="gneE0"/>
    </person>
    <person id="195" depart="283.60" type="DEFAULT_PEDTYPE">
        <walk from="gneE0" to="gneE0"/>
    </person>
    <person id="196" depart="284.20" type="DEFAULT_PEDTYPE">
        <walk from="gneE0" to="gneE1"/>
    </person>
    <person id="197" depart="284.40" type="DEFAULT_PEDTYPE">
        <walk from="gneE1" to="gneE0"/>
    </person>
    <person id="198" depart="284.80" type="DEFAULT_PEDTYPE">
        <walk from="gneE1" to="gneE0"/>
    </person>
    <person id="199" depart="285.00" type="DEFAULT_PEDTYPE">
        <walk from="gneE1" to="gneE0"/>
    </person>
    <person id="200" depart="288.20" type="DEFAULT_PEDTYPE">
        <walk from="gneE1" to="gneE1"/>
    </person>
    <person id="201" depart="288.60" type="DEFAULT_PEDTYPE">
        <walk from="gneE1" to="gneE1"/>
    </person>
    <person id="202" depart="288.80" type="DEFAULT_PEDTYPE">
        <walk from="gneE1" to="gneE1"/>
    </person>
    <person id="203" depart="293.40" type="DEFAULT_PEDTYPE">
        <walk from="gneE0" to="gneE0"/>
    </person>
    <person id="204" depart="294.00" type="DEFAULT_PEDTYPE">
        <walk from="gneE0" to="gneE1"/>
    </person>
    <person id="205" depart="297.80" type="DEFAULT_PEDTYPE">
        <walk from="gneE1" to="gneE0"/>
    </person>
    <person id="206" depart="298.60" type="DEFAULT_PEDTYPE">
        <walk from="gneE0" to="gneE0"/>
    </person>
    <person id="207" depart="299.80" type="DEFAULT_PEDTYPE">
        <walk from="gneE0" to="gneE1"/>
    </person>
    <person id="208" depart="300.40" type="DEFAULT_PEDTYPE">
        <walk from="gneE1" to="gneE0"/>
    </person>
    <person id="209" depart="302.40" type="DEFAULT_PEDTYPE">
        <walk from="gneE1" to="gneE0"/>
    </person>
    <person id="210" depart="304.80" type="DEFAULT_PEDTYPE">
        <walk from="gneE0" to="gneE1"/>
    </person>
    <person id="211" depart="307.40" type="DEFAULT_PEDTYPE">
        <walk from="gneE0" to="gneE1"/>
    </person>
    <person id="212" depart="308.80" type="DEFAULT_PEDTYPE">
        <walk from="gneE1" to="gneE1"/>
    </person>
    <person id="213" depart="318.60" type="DEFAULT_PEDTYPE">
        <walk from="gneE0" to="gneE0"/>
    </person>
    <person id="214" depart="320.20" type="DEFAULT_PEDTYPE">
        <walk from="gneE0" to="gneE1"/>
    </person>
    <person id="215" depart="322.20" type="DEFAULT_PEDTYPE">
        <walk from="gneE1" to="gneE0"/>
    </person>
    <person id="216" depart="323.00" type="DEFAULT_PEDTYPE">
        <walk from="gneE1" to="gneE0"/>
    </person>
    <person id="217" depart="324.80" type="DEFAULT_PEDTYPE">
        <walk from="gneE0" to="gneE0"/>
    </person>
    <person id="218" depart="325.80" type="DEFAULT_PEDTYPE">
        <walk from="gneE0" to="gneE1"/>
    </person>
    <person id="219" depart="331.40" type="DEFAULT_PEDTYPE">
        <walk from="gneE0" to="gneE0"/>
    </person>
    <person id="220" depart="337.20" type="DEFAULT_PEDTYPE">
        <walk from="gneE0" to="gneE0"/>
    </person>
    <person id="221" depart="338.20" type="DEFAULT_PEDTYPE">
        <walk from="gneE0" to="gneE0"/>
    </person>
    <person id="222" depart="338.60" type="DEFAULT_PEDTYPE">
        <walk from="gneE1" to="gneE0"/>
    </person>
    <person id="223" depart="340.20" type="DEFAULT_PEDTYPE">
        <walk from="gneE1" to="gneE1"/>
    </person>
    <person id="224" depart="342.00" type="DEFAULT_PEDTYPE">
        <walk from="gneE1" to="gneE0"/>
    </person>
    <person id="225" depart="342.60" type="DEFAULT_PEDTYPE">
        <walk from="gneE0" to="gneE1"/>
    </person>
    <person id="226" depart="344.20" type="DEFAULT_PEDTYPE">
        <walk from="gneE1" to="gneE0"/>
    </person>
    <person id="227" depart="344.80" type="DEFAULT_PEDTYPE">
        <walk from="gneE1" to="gneE0"/>
    </person>
    <person id="228" depart="344.80" type="DEFAULT_PEDTYPE">
        <walk from="gneE0" to="gneE0"/>
    </person>
    <person id="229" depart="346.80" type="DEFAULT_PEDTYPE">
        <walk from="gneE1" to="gneE0"/>
    </person>
    <person id="230" depart="347.00" type="DEFAULT_PEDTYPE">
        <walk from="gneE0" to="gneE0"/>
    </person>
    <person id="231" depart="349.80" type="DEFAULT_PEDTYPE">
        <walk from="gneE0" to="gneE0"/>
    </person>
    <person id="232" depart="351.00" type="DEFAULT_PEDTYPE">
        <walk from="gneE1" to="gneE1"/>
    </person>
    <person id="233" depart="351.60" type="DEFAULT_PEDTYPE">
        <walk from="gneE0" to="gneE0"/>
    </person>
    <person id="234" depart="352.20" type="DEFAULT_PEDTYPE">
        <walk from="gneE0" to="gneE1"/>
    </person>
    <person id="235" depart="352.60" type="DEFAULT_PEDTYPE">
        <walk from="gneE1" to="gneE0"/>
    </person>
    <person id="236" depart="357.80" type="DEFAULT_PEDTYPE">
        <walk from="gneE1" to="gneE0"/>
    </person>
    <person id="237" depart="358.60" type="DEFAULT_PEDTYPE">
        <walk from="gneE0" to="gneE0"/>
    </person>
    <person id="238" depart="358.60" type="DEFAULT_PEDTYPE">
        <walk from="gneE0" to="gneE1"/>
    </person>
    <person id="239" depart="359.40" type="DEFAULT_PEDTYPE">
        <walk from="gneE0" to="gneE0"/>
    </person>
    <person id="240" depart="362.60" type="DEFAULT_PEDTYPE">
        <walk from="gneE0" to="gneE1"/>
    </person>
    <person id="241" depart="362.80" type="DEFAULT_PEDTYPE">
        <walk from="gneE1" to="gneE1"/>
    </person>
    <person id="242" depart="363.00" type="DEFAULT_PEDTYPE">
        <walk from="gneE0" to="gneE0"/>
    </person>
    <person id="243" depart="363.20" type="DEFAULT_PEDTYPE">
        <walk from="gneE0" to="gneE1"/>
    </person>
    <person id="244" depart="367.00" type="DEFAULT_PEDTYPE">
        <walk from="gneE1" to="gneE0"/>
    </person>
    <person id="245" depart="368.80" type="DEFAULT_PEDTYPE">
        <walk from="gneE0" to="gneE1"/>
    </person>
    <person id="246" depart="369.40" type="DEFAULT_PEDTYPE">
        <walk from="gneE0" to="gneE0"/>
    </person>
    <person id="247" depart="370.20" type="DEFAULT_PEDTYPE">
        <walk from="gneE0" to="gneE0"/>
    </person>
    <person id="248" depart="374.80" type="DEFAULT_PEDTYPE">
        <walk from="gneE0" to="gneE0"/>
    </person>
    <person id="249" depart="375.40" type="DEFAULT_PEDTYPE">
        <walk from="gneE1" to="gneE0"/>
    </person>
    <person id="250" depart="377.40" type="DEFAULT_PEDTYPE">
        <walk from="gneE0" to="gneE0"/>
    </person>
    <person id="251" depart="378.60" type="DEFAULT_PEDTYPE">
        <walk from="gneE0" to="gneE0"/>
    </person>
    <person id="252" depart="380.80" type="DEFAULT_PEDTYPE">
        <walk from="gneE0" to="gneE0"/>
    </person>
    <person id="253" depart="381.60" type="DEFAULT_PEDTYPE">
        <walk from="gneE0" to="gneE1"/>
    </person>
    <person id="254" depart="382.00" type="DEFAULT_PEDTYPE">
        <walk from="gneE1" to="gneE0"/>
    </person>
    <person id="255" depart="386.20" type="DEFAULT_PEDTYPE">
        <walk from="gneE1" to="gneE0"/>
    </person>