<?xml version="1.0" encoding="UTF-8"?>

<!-- generated on 2023-04-01 13:05:15.546733 by randomTrips.py v1_15_0+0682-ef022823415
<configuration>
    <end value="1000"/>
    <length value="True"/>
    <max-distance value="1000.0"/>
    <net-file value="/home/toore/Tirocinio_SUMO/Scenario/Prova_out/Prova.net.xml"/>
    <period value="1.4"/>
    <persontrips value="True"/>
    <random value="True"/>
    <random-depart value="True"/>
    <route-file value="vehicles.rou.xml"/>
    <seed value="10000"/>
    <trip-attributes value="modes=&quot;public car&quot;"/>
</configuration>
-->

<!-- generated on Sat Apr  1 13:05:15 2023 by Eclipse SUMO duarouter Version 1.8.0
<configuration xmlns:xsi="http://www.w3.org/2001/XMLSchema-instance" xsi:noNamespaceSchemaLocation="http://sumo.dlr.de/xsd/duarouterConfiguration.xsd">

    <input>
        <net-file value="/home/toore/Tirocinio_SUMO/Scenario/Prova_out/Prova.net.xml"/>
        <route-files value="trips.trips.xml"/>
    </input>

    <output>
        <output-file value="vehicles.rou.xml"/>
        <alternatives-output value="NUL"/>
    </output>

    <time>
        <begin value="0"/>
        <end value="1000"/>
    </time>

    <report>
        <no-warnings value="true"/>
        <ignore-errors value="true"/>
        <no-step-log value="true"/>
    </report>

</configuration>
-->

<routes xmlns:xsi="http://www.w3.org/2001/XMLSchema-instance" xsi:noNamespaceSchemaLocation="http://sumo.dlr.de/xsd/routes_file.xsd">
    <vehicle id="0_0" depart="triggered">
        <route edges="gneE0 gneE1"/>
    </vehicle>
    <person id="0" depart="0.60">
        <ride from="gneE0" to="gneE1" lines="0_0"/>
    </person>
    <vehicle id="1_0" depart="triggered">
        <route edges="gneE0 gneE1"/>
    </vehicle>
    <person id="1" depart="1.20">
        <ride from="gneE0" to="gneE1" lines="1_0"/>
    </person>
    <person id="2" depart="1.60">
        <walk edges="gneE0"/>
    </person>
    <person id="3" depart="3.40">
        <walk edges="gneE0"/>
    </person>
    <person id="4" depart="3.80">
        <walk edges="gneE0"/>
    </person>
    <person id="5" depart="5.00">
        <walk edges="gneE1 gneE0"/>
    </person>
    <person id="6" depart="5.60">
        <walk edges="gneE0"/>
    </person>
    <vehicle id="7_0" depart="triggered">
        <route edges="gneE0 gneE1"/>
    </vehicle>
    <person id="7" depart="8.60">
        <ride from="gneE0" to="gneE1" lines="7_0"/>
    </person>
    <person id="8" depart="10.00">
        <walk edges="gneE1 gneE0"/>
    </person>
    <person id="9" depart="13.20">
        <walk edges="gneE1"/>
    </person>
    <person id="10" depart="13.40">
        <walk edges="gneE0"/>
    </person>
    <vehicle id="11_0" depart="triggered">
        <route edges="gneE0 gneE1"/>
    </vehicle>
    <person id="11" depart="17.80">
        <ride from="gneE0" to="gneE1" lines="11_0"/>
    </person>
    <vehicle id="12_0" depart="triggered">
        <route edges="gneE0 gneE1"/>
    </vehicle>
    <person id="12" depart="20.20">
        <ride from="gneE0" to="gneE1" lines="12_0"/>
    </person>
    <vehicle id="13_0" depart="triggered">
        <route edges="gneE0 gneE1"/>
    </vehicle>
    <person id="13" depart="22.00">
        <ride from="gneE0" to="gneE1" lines="13_0"/>
    </person>
    <person id="14" depart="24.20">
        <walk edges="gneE0"/>
    </person>
    <person id="15" depart="24.20">
        <walk edges="gneE1 gneE0"/>
    </person>
    <person id="16" depart="24.20">
        <walk edges="gneE0"/>
    </person>
    <person id="17" depart="25.80">
        <walk edges="gneE0"/>
    </person>
    <vehicle id="18_0" depart="triggered">
        <route edges="gneE0 gneE1"/>
    </vehicle>
    <person id="18" depart="26.20">
        <ride from="gneE0" to="gneE1" lines="18_0"/>
    </person>
    <person id="19" depart="31.80">
        <walk edges="gneE0"/>
    </person>
    <person id="20" depart="33.00">
        <walk edges="gneE0"/>
    </person>
    <vehicle id="21_0" depart="triggered">
        <route edges="gneE0 gneE1"/>
    </vehicle>
    <person id="21" depart="33.40">
        <ride from="gneE0" to="gneE1" lines="21_0"/>
    </person>
    <person id="22" depart="34.20">
        <walk edges="gneE1 gneE0"/>
    </person>
    <person id="23" depart="38.00">
        <walk edges="gneE1 gneE0"/>
    </person>
    <person id="24" depart="38.00">
        <walk edges="gneE0"/>
    </person>
    <vehicle id="25_0" depart="triggered">
        <route edges="gneE0 gneE1"/>
    </vehicle>
    <person id="25" depart="39.80">
        <ride from="gneE0" to="gneE1" lines="25_0"/>
    </person>
    <person id="26" depart="39.80">
        <walk edges="gneE1 gneE0"/>
    </person>
    <person id="27" depart="40.60">
        <walk edges="gneE0"/>
    </person>
    <vehicle id="28_0" depart="triggered">
        <route edges="gneE0 gneE1"/>
    </vehicle>
    <person id="28" depart="40.60">
        <ride from="gneE0" to="gneE1" lines="28_0"/>
    </person>
    <person id="29" depart="42.40">
        <walk edges="gneE0"/>
    </person>
    <person id="30" depart="45.40">
        <walk edges="gneE1 gneE0"/>
    </person>
    <vehicle id="31_0" depart="triggered">
        <route edges="gneE0 gneE1"/>
    </vehicle>
    <person id="31" depart="46.20">
        <ride from="gneE0" to="gneE1" lines="31_0"/>
    </person>
    <person id="32" depart="47.80">
        <walk edges="gneE0"/>
    </person>
    <person id="33" depart="48.60">
        <walk edges="gneE0"/>
    </person>
    <person id="34" depart="49.40">
        <walk edges="gneE1"/>
    </person>
    <person id="35" depart="49.60">
        <walk edges="gneE0"/>
    </person>
    <person id="36" depart="52.00">
        <walk edges="gneE0"/>
    </person>
    <person id="37" depart="52.00">
        <walk edges="gneE1"/>
    </person>
    <person id="38" depart="53.00">
        <walk edges="gneE0"/>
    </person>
    <vehicle id="39_0" depart="triggered">
        <route edges="gneE0 gneE1"/>
    </vehicle>
    <person id="39" depart="54.00">
        <ride from="gneE0" to="gneE1" lines="39_0"/>
    </person>
    <person id="40" depart="55.80">
        <walk edges="gneE0"/>
    </person>
    <person id="41" depart="55.80">
        <walk edges="gneE1 gneE0"/>
    </person>
    <vehicle id="42_0" depart="triggered">
        <route edges="gneE0 gneE1"/>
    </vehicle>
    <person id="42" depart="57.00">
        <ride from="gneE0" to="gneE1" lines="42_0"/>
    </person>
    <vehicle id="43_0" depart="triggered">
        <route edges="gneE0 gneE1"/>
    </vehicle>
    <person id="43" depart="59.20">
        <ride from="gneE0" to="gneE1" lines="43_0"/>
    </person>
    <person id="44" depart="60.40">
        <walk edges="gneE0"/>
    </person>
    <person id="45" depart="61.00">
        <walk edges="gneE0"/>
    </person>
    <person id="46" depart="62.40">
        <walk edges="gneE1 gneE0"/>
    </person>
    <person id="47" depart="62.60">
        <walk edges="gneE0"/>
    </person>
    <person id="48" depart="63.60">
        <walk edges="gneE0"/>
    </person>
    <person id="49" depart="65.60">
        <walk edges="gneE0"/>
    </person>
    <vehicle id="50_0" depart="triggered">
        <route edges="gneE0 gneE1"/>
    </vehicle>
    <person id="50" depart="65.80">
        <ride from="gneE0" to="gneE1" lines="50_0"/>
    </person>
    <person id="51" depart="66.80">
        <walk edges="gneE0"/>
    </person>
    <person id="52" depart="67.80">
        <walk edges="gneE0"/>
    </person>
    <person id="53" depart="69.40">
        <walk edges="gneE0"/>
    </person>
    <vehicle id="54_0" depart="triggered">
        <route edges="gneE0 gneE1"/>
    </vehicle>
    <person id="54" depart="71.80">
        <ride from="gneE0" to="gneE1" lines="54_0"/>
    </person>
    <person id="55" depart="73.20">
        <walk edges="gneE0"/>
    </person>
    <person id="56" depart="73.40">
        <walk edges="gneE1"/>
    </person>
    <person id="57" depart="73.80">
        <walk edges="gneE0"/>
    </person>
    <person id="58" depart="75.40">
        <walk edges="gneE1 gneE0"/>
    </person>
    <vehicle id="59_0" depart="triggered">
        <route edges="gneE0 gneE1"/>
    </vehicle>
    <person id="59" depart="75.60">
        <ride from="gneE0" to="gneE1" lines="59_0"/>
    </person>
    <person id="60" depart="75.80">
        <walk edges="gneE1"/>
    </person>
    <vehicle id="61_0" depart="triggered">
        <route edges="gneE0 gneE1"/>
    </vehicle>
    <person id="61" depart="76.80">
        <ride from="gneE0" to="gneE1" lines="61_0"/>
    </person>
    <person id="62" depart="78.40">
        <walk edges="gneE1"/>
    </person>
    <vehicle id="63_0" depart="triggered">
        <route edges="gneE0 gneE1"/>
    </vehicle>
    <person id="63" depart="79.80">
        <ride from="gneE0" to="gneE1" lines="63_0"/>
    </person>
    <person id="64" depart="82.80">
        <walk edges="gneE0"/>
    </person>
    <person id="65" depart="84.20">
        <walk edges="gneE1 gneE0"/>
    </person>
    <person id="66" depart="90.20">
        <walk edges="gneE0"/>
    </person>
    <person id="67" depart="92.40">
        <walk edges="gneE1 gneE0"/>
    </person>
    <person id="68" depart="92.80">
        <walk edges="gneE1 gneE0"/>
    </person>
    <vehicle id="69_0" depart="triggered">
        <route edges="gneE0 gneE1"/>
    </vehicle>
    <person id="69" depart="95.20">
        <ride from="gneE0" to="gneE1" lines="69_0"/>
    </person>
    <person id="70" depart="95.60">
        <walk edges="gneE0"/>
    </person>
    <person id="71" depart="96.60">
        <walk edges="gneE0"/>
    </person>
    <person id="72" depart="97.40">
        <walk edges="gneE0"/>
    </person>
    <person id="73" depart="97.40">
        <walk edges="gneE1 gneE0"/>
    </person>
    <person id="74" depart="101.60">
        <walk edges="gneE0"/>
    </person>
    <person id="75" depart="102.60">
        <walk edges="gneE1 gneE0"/>
    </person>
    <person id="76" depart="103.60">
        <walk edges="gneE0"/>
    </person>
    <vehicle id="77_0" depart="triggered">
        <route edges="gneE0 gneE1"/>
    </vehicle>
    <person id="77" depart="104.20">
        <ride from="gneE0" to="gneE1" lines="77_0"/>
    </person>
    <vehicle id="78_0" depart="triggered">
        <route edges="gneE0 gneE1"/>
    </vehicle>
    <person id="78" depart="105.00">
        <ride from="gneE0" to="gneE1" lines="78_0"/>
    </person>
    <person id="79" depart="105.20">
        <walk edges="gneE1 gneE0"/>
    </person>
    <vehicle id="80_0" depart="triggered">
        <route edges="gneE0 gneE1"/>
    </vehicle>
    <person id="80" depart="105.40">
        <ride from="gneE0" to="gneE1" lines="80_0"/>
    </person>
    <person id="81" depart="106.20">
        <walk edges="gneE0"/>
    </person>
    <person id="82" depart="106.60">
        <walk edges="gneE0"/>
    </person>
    <person id="83" depart="108.00">
        <walk edges="gneE1 gneE0"/>
    </person>
    <person id="84" depart="109.00">
        <walk edges="gneE1 gneE0"/>
    </person>
    <vehicle id="85_0" depart="triggered">
        <route edges="gneE0 gneE1"/>
    </vehicle>
    <person id="85" depart="110.20">
        <ride from="gneE0" to="gneE1" lines="85_0"/>
    </person>
    <person id="86" depart="115.40">
        <walk edges="gneE0"/>
    </person>
    <vehicle id="87_0" depart="triggered">
        <route edges="gneE0 gneE1"/>
    </vehicle>
    <person id="87" depart="118.80">
        <ride from="gneE0" to="gneE1" lines="87_0"/>
    </person>
    <vehicle id="88_0" depart="triggered">
        <route edges="gneE0 gneE1"/>
    </vehicle>
    <person id="88" depart="120.60">
        <ride from="gneE0" to="gneE1" lines="88_0"/>
    </person>
    <person id="89" depart="120.80">
        <walk edges="gneE1"/>
    </person>
    <person id="90" depart="122.80">
        <walk edges="gneE0"/>
    </person>
    <person id="91" depart="123.00">
        <walk edges="gneE1 gneE0"/>
    </person>
    <person id="92" depart="124.40">
        <walk edges="gneE0"/>
    </person>
    <person id="93" depart="125.20">
        <walk edges="gneE1 gneE0"/>
    </person>
    <person id="94" depart="127.20">
        <walk edges="gneE1 gneE0"/>
    </person>
    <person id="95" depart="128.40">
        <walk edges="gneE0"/>
    </person>
    <person id="96" depart="129.20">
        <walk edges="gneE0"/>
    </person>
    <person id="97" depart="133.40">
        <walk edges="gneE0"/>
    </person>
    <person id="98" depart="134.20">
        <walk edges="gneE0"/>
    </person>
    <person id="99" depart="134.40">
        <walk edges="gneE1 gneE0"/>
    </person>
    <person id="100" depart="136.00">
        <walk edges="gneE1 gneE0"/>
    </person>
    <person id="101" depart="136.80">
        <walk edges="gneE0"/>
    </person>
    <vehicle id="102_0" depart="triggered">
        <route edges="gneE0 gneE1"/>
    </vehicle>
    <person id="102" depart="139.80">
        <ride from="gneE0" to="gneE1" lines="102_0"/>
    </person>
    <person id="103" depart="141.40">
        <walk edges="gneE0"/>
    </person>
    <person id="104" depart="142.80">
        <walk edges="gneE0"/>
    </person>
    <person id="105" depart="143.20">
        <walk edges="gneE1"/>
    </person>
    <person id="106" depart="147.60">
        <walk edges="gneE0"/>
    </person>
    <person id="107" depart="148.80">
        <walk edges="gneE0"/>
    </person>
    <person id="108" depart="149.80">
        <walk edges="gneE1"/>
    </person>
    <person id="109" depart="153.80">
        <walk edges="gneE0"/>
    </person>
    <person id="110" depart="154.20">
        <walk edges="gneE0"/>
    </person>
    <person id="111" depart="154.40">
        <walk edges="gneE0"/>
    </person>
    <person id="112" depart="157.60">
        <walk edges="gneE1 gneE0"/>
    </person>
    <person id="113" depart="160.00">
        <walk edges="gneE0"/>
    </person>
    <person id="114" depart="160.80">
        <walk edges="gneE0"/>
    </person>
    <vehicle id="115_0" depart="triggered">
        <route edges="gneE0 gneE1"/>
    </vehicle>
    <person id="115" depart="161.40">
        <ride from="gneE0" to="gneE1" lines="115_0"/>
    </person>
    <person id="116" depart="162.60">
        <walk edges="gneE0"/>
    </person>
    <person id="117" depart="166.00">
        <walk edges="gneE1 gneE0"/>
    </person>
    <person id="118" depart="167.80">
        <walk edges="gneE1 gneE0"/>
    </person>
    <vehicle id="119_0" depart="triggered">
        <route edges="gneE0 gneE1"/>
    </vehicle>
    <person id="119" depart="168.00">
        <ride from="gneE0" to="gneE1" lines="119_0"/>
    </person>
    <vehicle id="120_0" depart="triggered">
        <route edges="gneE0 gneE1"/>
    </vehicle>
    <person id="120" depart="169.80">
        <ride from="gneE0" to="gneE1" lines="120_0"/>
    </person>
    <person id="121" depart="170.00">
        <walk edges="gneE0"/>
    </person>
    <person id="122" depart="174.80">
        <walk edges="gneE0"/>
    </person>
    <person id="123" depart="175.80">
        <walk edges="gneE1"/>
    </person>
    <person id="124" depart="176.20">
        <walk edges="gneE0"/>
    </person>
    <person id="125" depart="178.00">
        <walk edges="gneE0"/>
    </person>
    <person id="126" depart="180.40">
        <walk edges="gneE1"/>
    </person>
    <person id="127" depart="180.60">
        <walk edges="gneE1 gneE0"/>
    </person>
    <person id="128" depart="181.60">
        <walk edges="gneE1 gneE0"/>
    </person>
    <person id="129" depart="184.80">
        <walk edges="gneE0"/>
    </person>
    <person id="130" depart="185.00">
        <walk edges="gneE1 gneE0"/>
    </person>
    <vehicle id="131_0" depart="triggered">
        <route edges="gneE0 gneE1"/>
    </vehicle>
    <person id="131" depart="185.00">
        <ride from="gneE0" to="gneE1" lines="131_0"/>
    </person>
    <person id="132" depart="185.80">
        <walk edges="gneE0"/>
    </person>
    <person id="133" depart="189.80">
        <walk edges="gneE0"/>
    </person>
    <person id="134" depart="189.80">
        <walk edges="gneE1 gneE0"/>
    </person>
    <vehicle id="135_0" depart="triggered">
        <route edges="gneE0 gneE1"/>
    </vehicle>
    <person id="135" depart="191.20">
        <ride from="gneE0" to="gneE1" lines="135_0"/>
    </person>
    <person id="136" depart="193.60">
        <walk edges="gneE0"/>
    </person>
    <person id="137" depart="195.00">
        <walk edges="gneE0"/>
    </person>
    <person id="138" depart="195.60">
        <walk edges="gneE0"/>
    </person>
    <person id="139" depart="198.20">
        <walk edges="gneE1 gneE0"/>
    </person>
    <person id="140" depart="198.20">
        <walk edges="gneE0"/>
    </person>
    <person id="141" depart="198.60">
        <walk edges="gneE1"/>
    </person>
    <person id="142" depart="202.40">
        <walk edges="gneE0"/>
    </person>
    <person id="143" depart="204.80">
        <walk edges="gneE0"/>
    </person>
    <vehicle id="144_0" depart="triggered">
        <route edges="gneE0 gneE1"/>
    </vehicle>
    <person id="144" depart="205.00">
        <ride from="gneE0" to="gneE1" lines="144_0"/>
    </person>
    <vehicle id="145_0" depart="triggered">
        <route edges="gneE0 gneE1"/>
    </vehicle>
    <person id="145" depart="205.20">
        <ride from="gneE0" to="gneE1" lines="145_0"/>
    </person>
    <vehicle id="146_0" depart="triggered">
        <route edges="gneE0 gneE1"/>
    </vehicle>
    <person id="146" depart="207.60">
        <ride from="gneE0" to="gneE1" lines="146_0"/>
    </person>
    <person id="147" depart="208.40">
        <walk edges="gneE0"/>
    </person>
    <person id="148" depart="209.00">
        <walk edges="gneE1 gneE0"/>
    </person>
    <person id="149" depart="210.60">
        <walk edges="gneE1"/>
    </person>
    <vehicle id="150_0" depart="triggered">
        <route edges="gneE0 gneE1"/>
    </vehicle>
    <person id="150" depart="211.20">
        <ride from="gneE0" to="gneE1" lines="150_0"/>
    </person>
    <person id="151" depart="213.40">
        <walk edges="gneE1 gneE0"/>
    </person>
    <person id="152" depart="215.60">
        <walk edges="gneE1"/>
    </person>
    <vehicle id="153_0" depart="triggered">
        <route edges="gneE0 gneE1"/>
    </vehicle>
    <person id="153" depart="216.20">
        <ride from="gneE0" to="gneE1" lines="153_0"/>
    </person>
    <person id="154" depart="217.40">
        <walk edges="gneE1 gneE0"/>
    </person>
    <vehicle id="155_0" depart="triggered">
        <route edges="gneE0 gneE1"/>
    </vehicle>
    <person id="155" depart="217.80">
        <ride from="gneE0" to="gneE1" lines="155_0"/>
    </person>
    <person id="156" depart="219.20">
        <walk edges="gneE0"/>
    </person>
    <vehicle id="157_0" depart="triggered">
        <route edges="gneE0 gneE1"/>
    </vehicle>
    <person id="157" depart="219.40">
        <ride from="gneE0" to="gneE1" lines="157_0"/>
    </person>
    <person id="158" depart="219.60">
        <walk edges="gneE0"/>
    </person>
    <person id="159" depart="223.00">
        <walk edges="gneE1 gneE0"/>
    </person>
    <person id="160" depart="226.20">
        <walk edges="gneE1 gneE0"/>
    </person>
    <person id="161" depart="227.80">
        <walk edges="gneE0"/>
    </person>
    <person id="162" depart="228.00">
        <walk edges="gneE1"/>
    </person>
    <person id="163" depart="233.20">
        <walk edges="gneE0"/>
    </person>
    <person id="164" depart="233.40">
        <walk edges="gneE0"/>
    </person>
    <person id="165" depart="234.80">
        <walk edges="gneE0"/>
    </person>
    <person id="166" depart="235.00">
        <walk edges="gneE1"/>
    </person>
    <person id="167" depart="235.40">
        <walk edges="gneE0"/>
    </person>
    <vehicle id="168_0" depart="triggered">
        <route edges="gneE0 gneE1"/>
    </vehicle>
    <person id="168" depart="236.80">
        <ride from="gneE0" to="gneE1" lines="168_0"/>
    </person>
    <person id="169" depart="243.60">
        <walk edges="gneE1 gneE0"/>
    </person>
    <vehicle id="170_0" depart="triggered">
        <route edges="gneE0 gneE1"/>
    </vehicle>
    <person id="170" depart="243.80">
        <ride from="gneE0" to="gneE1" lines="170_0"/>
    </person>
    <person id="171" depart="244.80">
        <walk edges="gneE0"/>
    </person>
    <person id="172" depart="245.00">
        <walk edges="gneE0"/>
    </person>
    <person id="173" depart="245.40">
        <walk edges="gneE0"/>
    </person>
    <person id="174" depart="246.60">
        <walk edges="gneE1 gneE0"/>
    </person>
    <vehicle id="175_0" depart="triggered">
        <route edges="gneE0 gneE1"/>
    </vehicle>
    <person id="175" depart="246.60">
        <ride from="gneE0" to="gneE1" lines="175_0"/>
    </person>
    <vehicle id="176_0" depart="triggered">
        <route edges="gneE0 gneE1"/>
    </vehicle>
    <person id="176" depart="247.00">
        <ride from="gneE0" to="gneE1" lines="176_0"/>
    </person>
    <person id="177" depart="248.40">
        <walk edges="gneE1 gneE0"/>
    </person>
    <person id="178" depart="249.20">
        <walk edges="gneE0"/>
    </person>
    <person id="179" depart="249.60">
        <walk edges="gneE1 gneE0"/>
    </person>
    <vehicle id="180_0" depart="triggered">
        <route edges="gneE0 gneE1"/>
    </vehicle>
    <person id="180" depart="252.00">
        <ride from="gneE0" to="gneE1" lines="180_0"/>
    </person>
    <person id="181" depart="254.20">
        <walk edges="gneE1"/>
    </person>
    <person id="182" depart="255.80">
        <walk edges="gneE1 gneE0"/>
    </person>
    <person id="183" depart="258.40">
        <walk edges="gneE0"/>
    </person>
    <person id="184" depart="263.00">
        <walk edges="gneE0"/>
    </person>
    <person id="185" depart="264.40">
        <walk edges="gneE0"/>
    </person>
    <vehicle id="186_0" depart="triggered">
        <route edges="gneE0 gneE1"/>
    </vehicle>
    <person id="186" depart="265.60">
        <ride from="gneE0" to="gneE1" lines="186_0"/>
    </person>
    <person id="187" depart="267.80">
        <walk edges="gneE1"/>
    </person>
    <vehicle id="188_0" depart="triggered">
        <route edges="gneE0 gneE1"/>
    </vehicle>
    <person id="188" depart="268.80">
        <ride from="gneE0" to="gneE1" lines="188_0"/>
    </person>
    <person id="189" depart="271.80">
        <walk edges="gneE1 gneE0"/>
    </person>
    <person id="190" depart="272.60">
        <walk edges="gneE1"/>
    </person>
    <vehicle id="191_0" depart="triggered">
        <route edges="gneE0 gneE1"/>
    </vehicle>
    <person id="191" depart="276.20">
        <ride from="gneE0" to="gneE1" lines="191_0"/>
    </person>
    <person id="192" depart="278.00">
        <walk edges="gneE1"/>
    </person>
    <person id="193" depart="281.40">
        <walk edges="gneE0"/>
    </person>
    <person id="194" depart="281.80">
        <walk edges="gneE0"/>
    </person>
    <person id="195" depart="283.40">
        <walk edges="gneE1 gneE0"/>
    </person>
    <person id="196" depart="285.80">
        <walk edges="gneE1 gneE0"/>
    </person>
    <person id="197" depart="286.20">
        <walk edges="gneE0"/>
    </person>
    <vehicle id="198_0" depart="triggered">
        <route edges="gneE0 gneE1"/>
    </vehicle>
    <person id="198" depart="287.80">
        <ride from="gneE0" to="gneE1" lines="198_0"/>
    </person>
    <person id="199" depart="288.60">
        <walk edges="gneE0"/>
    </person>
    <vehicle id="200_0" depart="triggered">
        <route edges="gneE0 gneE1"/>
    </vehicle>
    <person id="200" depart="289.00">
        <ride from="gneE0" to="gneE1" lines="200_0"/>
    </person>
    <person id="201" depart="290.60">
        <walk edges="gneE0"/>
    </person>
    <person id="202" depart="291.60">
        <walk edges="gneE1"/>
    </person>
    <person id="203" depart="292.00">
        <walk edges="gneE1"/>
    </person>
    <person id="204" depart="294.20">
        <walk edges="gneE1 gneE0"/>
    </person>
    <person id="205" depart="295.40">
        <walk edges="gneE0"/>
    </person>
    <person id="206" depart="298.00">
        <walk edges="gneE1 gneE0"/>
    </person>
    <vehicle id="207_0" depart="triggered">
        <route edges="gneE0 gneE1"/>
    </vehicle>
    <person id="207" depart="298.00">
        <ride from="gneE0" to="gneE1" lines="207_0"/>
    </person>
    <person id="208" depart="299.60">
        <walk edges="gneE1 gneE0"/>
    </person>
    <person id="209" depart="302.40">
        <walk edges="gneE1"/>
    </person>
    <person id="210" depart="304.60">
        <walk edges="gneE0"/>
    </person>
    <person id="211" depart="304.80">
        <walk edges="gneE1"/>
    </person>
    <person id="212" depart="305.00">
        <walk edges="gneE0"/>
    </person>
    <person id="213" depart="309.80">
        <walk edges="gneE1 gneE0"/>
    </person>
    <vehicle id="214_0" depart="triggered">
        <route edges="gneE0 gneE1"/>
    </vehicle>
    <person id="214" depart="311.20">
        <ride from="gneE0" to="gneE1" lines="214_0"/>
    </person>
    <vehicle id="215_0" depart="triggered">
        <route edges="gneE0 gneE1"/>
    </vehicle>
    <person id="215" depart="312.40">
        <ride from="gneE0" to="gneE1" lines="215_0"/>
    </person>
    <person id="216" depart="313.00">
        <walk edges="gneE1"/>
    </person>
    <vehicle id="217_0" depart="triggered">
        <route edges="gneE0 gneE1"/>
    </vehicle>
    <person id="217" depart="314.00">
        <ride from="gneE0" to="gneE1" lines="217_0"/>
    </person>
    <vehicle id="218_0" depart="triggered">
        <route edges="gneE0 gneE1"/>
    </vehicle>
    <person id="218" depart="316.60">
        <ride from="gneE0" to="gneE1" lines="218_0"/>
    </person>
    <person id="219" depart="318.80">
        <walk edges="gneE0"/>
    </person>
    <person id="220" depart="323.40">
        <walk edges="gneE0"/>
    </person>
    <vehicle id="221_0" depart="triggered">
        <route edges="gneE0 gneE1"/>
    </vehicle>
    <person id="221" depart="325.80">
        <ride from="gneE0" to="gneE1" lines="221_0"/>
    </person>
    <person id="222" depart="328.80">
        <walk edges="gneE1"/>
    </person>
    <person id="223" depart="329.40">
        <walk edges="gneE0"/>
    </person>
    <person id="224" depart="329.60">
        <walk edges="gneE1"/>
    </person>
    <vehicle id="225_0" depart="triggered">
        <route edges="gneE0 gneE1"/>
    </vehicle>
    <person id="225" depart="331.00">
        <ride from="gneE0" to="gneE1" lines="225_0"/>
    </person>
    <vehicle id="226_0" depart="triggered">
        <route edges="gneE0 gneE1"/>
    </vehicle>
    <person id="226" depart="332.20">
        <ride from="gneE0" to="gneE1" lines="226_0"/>
    </person>
    <person id="227" depart="332.40">
        <walk edges="gneE1 gneE0"/>
    </person>
    <person id="228" depart="333.40">
        <walk edges="gneE0"/>
    </person>
    <person id="229" depart="335.20">
        <walk edges="gneE1"/>
    </person>
    <vehicle id="230_0" depart="triggered">
        <route edges="gneE0 gneE1"/>
    </vehicle>
    <person id="230" depart="336.00">
        <ride from="gneE0" to="gneE1" lines="230_0"/>
    </person>
    <person id="231" depart="338.20">
        <walk edges="gneE0"/>
    </person>
    <person id="232" depart="340.60">
        <walk edges="gneE1"/>
    </person>
    <person id="233" depart="341.00">
        <walk edges="gneE1 gneE0"/>
    </person>
    <person id="234" depart="343.80">
        <walk edges="gneE1"/>
    </person>
    <person id="235" depart="345.20">
        <walk edges="gneE0"/>
    </person>
    <person id="236" depart="345.60">
        <walk edges="gneE0"/>
    </person>
    <vehicle id="237_0" depart="triggered">
        <route edges="gneE0 gneE1"/>
    </vehicle>
    <person id="237" depart="347.80">
        <ride from="gneE0" to="gneE1" lines="237_0"/>
    </person>
    <vehicle id="238_0" depart="triggered">
        <route edges="gneE0 gneE1"/>
    </vehicle>
    <person id="238" depart="348.40">
        <ride from="gneE0" to="gneE1" lines="238_0"/>
    </person>
    <vehicle id="239_0" depart="triggered">
        <route edges="gneE0 gneE1"/>
    </vehicle>
    <person id="239" depart="348.60">
        <ride from="gneE0" to="gneE1" lines="239_0"/>
    </person>
    <person id="240" depart="353.80">
        <walk edges="gneE1"/>
    </person>
    <person id="241" depart="354.00">
        <walk edges="gneE0"/>
    </person>
    <vehicle id="242_0" depart="triggered">
        <route edges="gneE0 gneE1"/>
    </vehicle>
    <person id="242" depart="356.20">
        <ride from="gneE0" to="gneE1" lines="242_0"/>
    </person>
    <person id="243" depart="356.80">
        <walk edges="gneE0"/>
    </person>
    <person id="244" depart="357.40">
        <walk edges="gneE0"/>
    </person>
    <person id="245" depart="358.60">
        <walk edges="gneE1 gneE0"/>
    </person>
    <person id="246" depart="359.00">
        <walk edges="gneE1 gneE0"/>
    </person>
    <person id="247" depart="359.20">
        <walk edges="gneE1"/>
    </person>
    <person id="248" depart="360.60">
        <walk edges="gneE0"/>
    </person>
    <vehicle id="249_0" depart="triggered">
        <route edges="gneE0 gneE1"/>
    </vehicle>
    <person id="249" depart="361.80">
        <ride from="gneE0" to="gneE1" lines="249_0"/>
    </person>
    <vehicle id="250_0" depart="triggered">
        <route edges="gneE0 gneE1"/>
    </vehicle>
    <person id="250" depart="362.00">
        <ride from="gneE0" to="gneE1" lines="250_0"/>
    </person>
    <person id="251" depart="362.00">
        <walk edges="gneE0"/>
    </person>
    <person id="252" depart="362.20">
        <walk edges="gneE1 gneE0"/>
    </person>