<?xml version="1.0" encoding="UTF-8"?>

<!-- generated on Wed Apr  5 13:10:42 2023 by Eclipse SUMO duarouter Version 1.8.0
<configuration xmlns:xsi="http://www.w3.org/2001/XMLSchema-instance" xsi:noNamespaceSchemaLocation="http://sumo.dlr.de/xsd/duarouterConfiguration.xsd">

    <input>
        <net-file value="/home/toore/Tirocinio_SUMO/Scenario/scenario_per_tesi/2023-03-31-10-37-43/osm.net.xml"/>
        <route-files value="trips.trips.xml"/>
    </input>

    <output>
        <output-file value="peds2.rou.xml"/>
        <alternatives-output value="NUL"/>
    </output>

    <time>
        <begin value="0"/>
        <end value="10000"/>
    </time>

    <report>
        <no-warnings value="true"/>
        <ignore-errors value="true"/>
        <no-step-log value="true"/>
    </report>

</configuration>
-->

<routes xmlns:xsi="http://www.w3.org/2001/XMLSchema-instance" xsi:noNamespaceSchemaLocation="http://sumo.dlr.de/xsd/routes_file.xsd">
    <person id="0" type="DEFAULT_PEDTYPE" depart="1.80">
        <personTrip from="993984189" to="-23195499#1" walkFactor="0.75" costs="516.99"/>
    </person>
    <person id="1" type="DEFAULT_PEDTYPE" depart="2.20">
        <personTrip from="1132162843#2" to="28999595#1" walkFactor="0.75" costs="29.75"/>
    </person>
    <person id="2" type="DEFAULT_PEDTYPE" depart="3.20">
        <personTrip from="190606077#5" to="23683441#0" walkFactor="0.75" costs="473.48"/>
    </person>
    <person id="3" type="DEFAULT_PEDTYPE" depart="5.00">
        <personTrip from="28710621#0" to="193099645#1" walkFactor="0.75" costs="630.45"/>
    </person>
    <person id="4" type="DEFAULT_PEDTYPE" depart="5.40">
        <personTrip from="998885380" to="-23195751#0" walkFactor="0.75" costs="308.30"/>
    </person>
    <person id="5" type="DEFAULT_PEDTYPE" depart="6.20">
        <personTrip from="193099645#0" to="996144773" walkFactor="0.75" costs="590.26"/>
    </person>
    <person id="6" type="DEFAULT_PEDTYPE" depart="7.20">
        <personTrip from="522833721" to="29033731" walkFactor="0.75" costs="395.43"/>
    </person>
    <person id="7" type="DEFAULT_PEDTYPE" depart="8.00">
        <personTrip from="-322548792#1" to="28710934" walkFactor="0.75" costs="591.26"/>
    </person>
    <person id="8" type="DEFAULT_PEDTYPE" depart="9.20">
        <personTrip from="28998663#0" to="-322548792#1" walkFactor="0.75" costs="412.84"/>
    </person>
    <person id="9" type="DEFAULT_PEDTYPE" depart="18.60">
        <personTrip from="193099645#0" to="29033734#2" walkFactor="0.75" costs="616.30"/>
    </person>
    <person id="10" type="DEFAULT_PEDTYPE" depart="19.20">
        <personTrip from="545476129#5" to="998769537" walkFactor="0.75" costs="281.21"/>
    </person>
    <person id="11" type="DEFAULT_PEDTYPE" depart="20.40">
        <personTrip from="28709110" to="184427426#3" walkFactor="0.75" costs="630.38"/>
    </person>
    <person id="12" type="DEFAULT_PEDTYPE" depart="22.20">
        <personTrip from="353382750#1" to="995252088" walkFactor="0.75" costs="288.17"/>
    </person>
    <person id="13" type="DEFAULT_PEDTYPE" depart="24.20">
        <personTrip from="28708932" to="23195336#1" walkFactor="0.75" costs="22.68"/>
    </person>
    <person id="14" type="DEFAULT_PEDTYPE" depart="26.20">
        <personTrip from="-32062050#0" to="23195804#0" walkFactor="0.75" costs="578.51"/>
    </person>
    <person id="15" type="DEFAULT_PEDTYPE" depart="32.00">
        <personTrip from="587561458" to="23195792#0" walkFactor="0.75" costs="262.42"/>
    </person>
    <person id="16" type="DEFAULT_PEDTYPE" depart="33.40">
        <personTrip from="23195502#1" to="461160629" walkFactor="0.75" costs="407.69"/>
    </person>
    <person id="17" type="DEFAULT_PEDTYPE" depart="35.40">
        <personTrip from="29072597#1" to="655717640#1" walkFactor="0.75" costs="258.83"/>
    </person>
    <person id="18" type="DEFAULT_PEDTYPE" depart="35.80">
        <personTrip from="191979127#0" to="655717649#6" walkFactor="0.75" costs="442.35"/>
    </person>
    <person id="19" type="DEFAULT_PEDTYPE" depart="36.20">
        <personTrip from="184427434#0" to="23195749#0" walkFactor="0.75" costs="395.03"/>
    </person>
    <person id="20" type="DEFAULT_PEDTYPE" depart="37.40">
        <personTrip from="-522833753" to="29033734#2" walkFactor="0.75" costs="232.68"/>
    </person>
    <person id="21" type="DEFAULT_PEDTYPE" depart="40.20">
        <personTrip from="23195499#1" to="-32062050#0" walkFactor="0.75" costs="228.05"/>
    </person>
    <person id="22" type="DEFAULT_PEDTYPE" depart="42.40">
        <personTrip from="23195798" to="322548792#0" walkFactor="0.75" costs="646.69"/>
    </person>
    <person id="23" type="DEFAULT_PEDTYPE" depart="43.20">
        <personTrip from="-522833746" to="23195792#0" walkFactor="0.75" costs="383.93"/>
    </person>
    <person id="24" type="DEFAULT_PEDTYPE" depart="46.60">
        <personTrip from="996144773" to="23195801" walkFactor="0.75" costs="401.35"/>
    </person>
    <person id="25" type="DEFAULT_PEDTYPE" depart="48.60">
        <personTrip from="-29072597#1" to="192464423" walkFactor="0.75" costs="554.82"/>
    </person>
    <person id="26" type="DEFAULT_PEDTYPE" depart="50.20">
        <personTrip from="1132162844#0" to="193099645#0" walkFactor="0.75" costs="505.80"/>
    </person>
    <person id="27" type="DEFAULT_PEDTYPE" depart="50.80">
        <personTrip from="23195794#0" to="-23195499#1" walkFactor="0.75" costs="124.58"/>
    </person>
    <person id="28" type="DEFAULT_PEDTYPE" depart="51.00">
        <personTrip from="28998663#0" to="23195755#0" walkFactor="0.75" costs="364.55"/>
    </person>
    <person id="29" type="DEFAULT_PEDTYPE" depart="51.60">
        <personTrip from="998769535#0" to="474164620#0" walkFactor="0.75" costs="275.19"/>
    </person>
    <person id="30" type="DEFAULT_PEDTYPE" depart="52.20">
        <personTrip from="190606078#1" to="998769537" walkFactor="0.75" costs="366.95"/>
    </person>
    <person id="31" type="DEFAULT_PEDTYPE" depart="52.60">
        <personTrip from="192464423" to="23195804#0" walkFactor="0.75" costs="415.56"/>
    </person>
    <person id="32" type="DEFAULT_PEDTYPE" depart="53.20">
        <personTrip from="28710621#3" to="28998662#3" walkFactor="0.75" costs="364.73"/>
    </person>
    <person id="33" type="DEFAULT_PEDTYPE" depart="53.60">
        <personTrip from="485720694" to="539419146#1" walkFactor="0.75" costs="72.11"/>
    </person>
    <person id="34" type="DEFAULT_PEDTYPE" depart="54.00">
        <personTrip from="545476129#5" to="184427426#4" walkFactor="0.75" costs="270.41"/>
    </person>
    <person id="35" type="DEFAULT_PEDTYPE" depart="56.20">
        <personTrip from="322548792#0" to="23195749#0" walkFactor="0.75" costs="333.18"/>
    </person>
    <person id="36" type="DEFAULT_PEDTYPE" depart="56.60">
        <personTrip from="190606077#5" to="655693841" walkFactor="0.75" costs="313.61"/>
    </person>
    <person id="37" type="DEFAULT_PEDTYPE" depart="60.20">
        <personTrip from="1001467661" to="996022767" walkFactor="0.75" costs="274.05"/>
    </person>
    <person id="38" type="DEFAULT_PEDTYPE" depart="63.60">
        <personTrip from="123592772#2" to="184427434#0" walkFactor="0.75" costs="284.49"/>
    </person>
    <person id="39" type="DEFAULT_PEDTYPE" depart="64.00">
        <personTrip from="28709109#0" to="23195328#2" walkFactor="0.75" costs="398.01"/>
    </person>
    <person id="40" type="DEFAULT_PEDTYPE" depart="67.20">
        <personTrip from="23195501#1" to="1002422788#1" walkFactor="0.75" costs="75.61"/>
    </person>
    <person id="41" type="DEFAULT_PEDTYPE" depart="68.20">
        <personTrip from="28710621#0" to="23195736" walkFactor="0.75" costs="864.06"/>
    </person>
    <person id="42" type="DEFAULT_PEDTYPE" depart="69.60">
        <personTrip from="655717652" to="191959704#1" walkFactor="0.75" costs="496.94"/>
    </person>
    <person id="43" type="DEFAULT_PEDTYPE" depart="71.00">
        <personTrip from="191959704#1" to="545496366#1" walkFactor="0.75" costs="211.69"/>
    </person>
    <person id="44" type="DEFAULT_PEDTYPE" depart="72.40">
        <personTrip from="184427426#1" to="23195752#1" walkFactor="0.75" costs="618.00"/>
    </person>
    <person id="45" type="DEFAULT_PEDTYPE" depart="73.60">
        <personTrip from="-191987465#0" to="997944687" walkFactor="0.75" costs="281.60"/>
    </person>
    <person id="46" type="DEFAULT_PEDTYPE" depart="75.20">
        <personTrip from="23195749#0" to="117561950" walkFactor="0.75" costs="1.97"/>
    </person>
    <person id="47" type="DEFAULT_PEDTYPE" depart="76.20">
        <personTrip from="28710621#0" to="23195795" walkFactor="0.75" costs="790.59"/>
    </person>
    <person id="48" type="DEFAULT_PEDTYPE" depart="76.60">
        <personTrip from="1149634794#1" to="191959706#0" walkFactor="0.75" costs="279.01"/>
    </person>
    <person id="49" type="DEFAULT_PEDTYPE" depart="78.00">
        <personTrip from="23195803#2" to="117561950" walkFactor="0.75" costs="100.53"/>
    </person>
    <person id="50" type="DEFAULT_PEDTYPE" depart="78.80">
        <personTrip from="1149437440" to="29033732" walkFactor="0.75" costs="336.05"/>
    </person>
    <person id="51" type="DEFAULT_PEDTYPE" depart="80.00">
        <personTrip from="655717649#4" to="28710934" walkFactor="0.75" costs="706.21"/>
    </person>
    <person id="52" type="DEFAULT_PEDTYPE" depart="80.20">
        <personTrip from="-191987466" to="522497449" walkFactor="0.75" costs="119.15"/>
    </person>
    <person id="53" type="DEFAULT_PEDTYPE" depart="81.20">
        <personTrip from="-998769537" to="28710621#1" walkFactor="0.75" costs="376.36"/>
    </person>
    <person id="54" type="DEFAULT_PEDTYPE" depart="81.80">
        <personTrip from="23195793" to="-28719125#0" walkFactor="0.75" costs="307.62"/>
    </person>
    <person id="55" type="DEFAULT_PEDTYPE" depart="83.60">
        <personTrip from="28710621#3" to="23195499#2" walkFactor="0.75" costs="506.83"/>
    </person>
    <person id="56" type="DEFAULT_PEDTYPE" depart="84.00">
        <personTrip from="184427434#0" to="1001467663" walkFactor="0.75" costs="236.30"/>
    </person>
    <person id="57" type="DEFAULT_PEDTYPE" depart="85.40">
        <personTrip from="184427434#0" to="193099645#0" walkFactor="0.75" costs="389.15"/>
    </person>
    <person id="58" type="DEFAULT_PEDTYPE" depart="86.60">
        <personTrip from="993984189" to="-474164620#0" walkFactor="0.75" costs="565.89"/>
    </person>
    <person id="59" type="DEFAULT_PEDTYPE" depart="87.20">
        <personTrip from="996144773" to="539483273" walkFactor="0.75" costs="672.72"/>
    </person>
    <person id="60" type="DEFAULT_PEDTYPE" depart="88.00">
        <personTrip from="-184427426#3" to="-28719125#0" walkFactor="0.75" costs="181.74"/>
    </person>
    <person id="61" type="DEFAULT_PEDTYPE" depart="88.20">
        <personTrip from="1132162842#0" to="23196322#0" walkFactor="0.75" costs="290.39"/>
    </person>
    <person id="62" type="DEFAULT_PEDTYPE" depart="92.60">
        <personTrip from="28710621#0" to="655693839" walkFactor="0.75" costs="729.42"/>
    </person>
    <person id="63" type="DEFAULT_PEDTYPE" depart="93.80">
        <personTrip from="-32062050#0" to="28710410" walkFactor="0.75" costs="549.64"/>
    </person>
    <person id="64" type="DEFAULT_PEDTYPE" depart="96.40">
        <personTrip from="996022769#1" to="29033732" walkFactor="0.75" costs="456.78"/>
    </person>
    <person id="65" type="DEFAULT_PEDTYPE" depart="96.40">
        <personTrip from="1132162844#0" to="28998662#1" walkFactor="0.75" costs="209.45"/>
    </person>
    <person id="66" type="DEFAULT_PEDTYPE" depart="96.60">
        <personTrip from="522833750#1" to="-184427426#3" walkFactor="0.75" costs="188.64"/>
    </person>
    <person id="67" type="DEFAULT_PEDTYPE" depart="96.80">
        <personTrip from="322548792#2" to="522833741#1" walkFactor="0.75" costs="325.62"/>
    </person>
    <person id="68" type="DEFAULT_PEDTYPE" depart="98.80">
        <personTrip from="474164620#0" to="23683441#0" walkFactor="0.75" costs="329.15"/>
    </person>
    <person id="69" type="DEFAULT_PEDTYPE" depart="99.00">
        <personTrip from="996144772#1" to="522833732#1" walkFactor="0.75" costs="278.81"/>
    </person>
    <person id="70" type="DEFAULT_PEDTYPE" depart="99.20">
        <personTrip from="23195499#2" to="996364918" walkFactor="0.75" costs="451.83"/>
    </person>
    <person id="71" type="DEFAULT_PEDTYPE" depart="101.00">
        <personTrip from="1149634794#1" to="29033803" walkFactor="0.75" costs="269.20"/>
    </person>
    <person id="72" type="DEFAULT_PEDTYPE" depart="103.60">
        <personTrip from="28718922#1" to="23195503" walkFactor="0.75" costs="212.50"/>
    </person>
    <person id="73" type="DEFAULT_PEDTYPE" depart="103.60">
        <personTrip from="193099645#2" to="539483273" walkFactor="0.75" costs="522.88"/>
    </person>
    <person id="74" type="DEFAULT_PEDTYPE" depart="103.60">
        <personTrip from="192464423" to="998769541#1" walkFactor="0.75" costs="252.69"/>
    </person>
    <person id="75" type="DEFAULT_PEDTYPE" depart="105.00">
        <personTrip from="461160629" to="-184427426#3" walkFactor="0.75" costs="166.30"/>
    </person>
    <person id="76" type="DEFAULT_PEDTYPE" depart="106.40">
        <personTrip from="-191959712#0" to="655717649#4" walkFactor="0.75" costs="470.20"/>
    </person>
    <person id="77" type="DEFAULT_PEDTYPE" depart="106.60">
        <personTrip from="28710621#0" to="28710621#0" walkFactor="0.75" costs="0.00"/>
    </person>
    <person id="78" type="DEFAULT_PEDTYPE" depart="106.80">
        <personTrip from="-23195496" to="-29072597#1" walkFactor="0.75" costs="228.97"/>
    </person>
    <person id="79" type="DEFAULT_PEDTYPE" depart="107.20">
        <personTrip from="191959706#1" to="1132162843#1" walkFactor="0.75" costs="353.80"/>
    </person>
    <person id="80" type="DEFAULT_PEDTYPE" depart="107.20">
        <personTrip from="-184427426#1" to="29033731" walkFactor="0.75" costs="83.38"/>
    </person>
    <person id="81" type="DEFAULT_PEDTYPE" depart="107.80">
        <personTrip from="23195801" to="28718922#1" walkFactor="0.75" costs="241.50"/>
    </person>
    <person id="82" type="DEFAULT_PEDTYPE" depart="108.80">
        <personTrip from="28998662#3" to="191987466" walkFactor="0.75" costs="238.84"/>
    </person>
    <person id="83" type="DEFAULT_PEDTYPE" depart="109.60">
        <personTrip from="484335723#1" to="655717644#1" walkFactor="0.75" costs="51.65"/>
    </person>
    <person id="84" type="DEFAULT_PEDTYPE" depart="111.40">
        <personTrip from="184427434#0" to="23195801" walkFactor="0.75" costs="125.61"/>
    </person>
    <person id="85" type="DEFAULT_PEDTYPE" depart="114.20">
        <personTrip from="1149634794#1" to="995665523#0" walkFactor="0.75" costs="140.23"/>
    </person>
    <person id="86" type="DEFAULT_PEDTYPE" depart="118.80">
        <personTrip from="-28718922#1" to="-474164620#0" walkFactor="0.75" costs="360.15"/>
    </person>
    <person id="87" type="DEFAULT_PEDTYPE" depart="120.80">
        <personTrip from="-23195499#0" to="23195801" walkFactor="0.75" costs="272.20"/>
    </person>
    <person id="89" type="DEFAULT_PEDTYPE" depart="123.60">
        <personTrip from="587561458" to="28710621#0" walkFactor="0.75" costs="861.26"/>
    </person>
    <person id="90" type="DEFAULT_PEDTYPE" depart="124.40">
        <personTrip from="23195336#1" to="29033803" walkFactor="0.75" costs="367.13"/>
    </person>
    <person id="91" type="DEFAULT_PEDTYPE" depart="125.20">
        <personTrip from="192464423" to="-1149437440" walkFactor="0.75" costs="374.19"/>
    </person>
    <person id="92" type="DEFAULT_PEDTYPE" depart="125.40">
        <personTrip from="184427426#3" to="545476129#5" walkFactor="0.75" costs="215.68"/>
    </person>
    <person id="93" type="DEFAULT_PEDTYPE" depart="128.20">
        <personTrip from="28708934#1" to="28710621#2" walkFactor="0.75" costs="281.84"/>
    </person>
    <person id="94" type="DEFAULT_PEDTYPE" depart="132.80">
        <personTrip from="661212190" to="23195795" walkFactor="0.75" costs="106.75"/>
    </person>
    <person id="95" type="DEFAULT_PEDTYPE" depart="133.40">
        <personTrip from="1144160275#1" to="23195798" walkFactor="0.75" costs="297.45"/>
    </person>
    <person id="96" type="DEFAULT_PEDTYPE" depart="134.00">
        <personTrip from="997944679" to="322548792#1" walkFactor="0.75" costs="321.52"/>
    </person>
    <person id="97" type="DEFAULT_PEDTYPE" depart="135.60">
        <personTrip from="184427426#0" to="28998662#3" walkFactor="0.75" costs="353.70"/>
    </person>
    <person id="98" type="DEFAULT_PEDTYPE" depart="136.00">
        <personTrip from="184427434#0" to="23195800" walkFactor="0.75" costs="100.86"/>
    </person>
    <person id="99" type="DEFAULT_PEDTYPE" depart="137.60">
        <personTrip from="28718922#1" to="28710621#0" walkFactor="0.75" costs="648.99"/>
    </person>
    <person id="100" type="DEFAULT_PEDTYPE" depart="139.60">
        <personTrip from="123592772#2" to="539483270" walkFactor="0.75" costs="68.82"/>
    </person>
    <person id="101" type="DEFAULT_PEDTYPE" depart="140.60">
        <personTrip from="28999595#1" to="-191987469#1" walkFactor="0.75" costs="258.35"/>
    </person>
    <person id="102" type="DEFAULT_PEDTYPE" depart="140.80">
        <personTrip from="28710755#2" to="998769531" walkFactor="0.75" costs="253.63"/>
    </person>
    <person id="103" type="DEFAULT_PEDTYPE" depart="141.60">
        <personTrip from="193099645#0" to="-23196319" walkFactor="0.75" costs="575.85"/>
    </person>
    <person id="104" type="DEFAULT_PEDTYPE" depart="143.40">
        <personTrip from="29241566" to="429515619#1" walkFactor="0.75" costs="130.41"/>
    </person>
    <person id="105" type="DEFAULT_PEDTYPE" depart="146.00">
        <personTrip from="-522833753" to="28709110" walkFactor="0.75" costs="432.01"/>
    </person>
    <person id="106" type="DEFAULT_PEDTYPE" depart="146.40">
        <personTrip from="191871225#0" to="995665523#0" walkFactor="0.75" costs="162.85"/>
    </person>
    <person id="107" type="DEFAULT_PEDTYPE" depart="146.80">
        <personTrip from="28710755#2" to="-522833746" walkFactor="0.75" costs="513.86"/>
    </person>
    <person id="108" type="DEFAULT_PEDTYPE" depart="148.40">
        <personTrip from="28710621#0" to="998885380" walkFactor="0.75" costs="521.65"/>
    </person>
    <person id="109" type="DEFAULT_PEDTYPE" depart="148.80">
        <personTrip from="23195499#2" to="545476129#5" walkFactor="0.75" costs="66.33"/>
    </person>
    <person id="110" type="DEFAULT_PEDTYPE" depart="149.40">
        <personTrip from="184427434#0" to="-23195496" walkFactor="0.75" costs="177.19"/>
    </person>
    <person id="111" type="DEFAULT_PEDTYPE" depart="149.40">
        <personTrip from="-191987466" to="995252087#1" walkFactor="0.75" costs="381.43"/>
    </person>
    <person id="112" type="DEFAULT_PEDTYPE" depart="150.60">
        <personTrip from="-23195496" to="322548792#1" walkFactor="0.75" costs="689.29"/>
    </person>
    <person id="113" type="DEFAULT_PEDTYPE" depart="152.20">
        <personTrip from="996364918" to="191871225#1" walkFactor="0.75" costs="325.29"/>
    </person>
    <person id="114" type="DEFAULT_PEDTYPE" depart="153.20">
        <personTrip from="1132162842#0" to="-184427426#4" walkFactor="0.75" costs="351.03"/>
    </person>
    <person id="115" type="DEFAULT_PEDTYPE" depart="153.80">
        <personTrip from="23195499#1" to="-191979123#0" walkFactor="0.75" costs="148.42"/>
    </person>
    <person id="116" type="DEFAULT_PEDTYPE" depart="154.20">
        <personTrip from="461160629" to="655717643" walkFactor="0.75" costs="184.26"/>
    </person>
    <person id="117" type="DEFAULT_PEDTYPE" depart="154.40">
        <personTrip from="996144772#1" to="23683441#1" walkFactor="0.75" costs="228.83"/>
    </person>
    <person id="118" type="DEFAULT_PEDTYPE" depart="154.80">
        <personTrip from="539419138" to="998769538#1" walkFactor="0.75" costs="435.81"/>
    </person>
    <person id="119" type="DEFAULT_PEDTYPE" depart="156.40">
        <personTrip from="998769540#1" to="997944687" walkFactor="0.75" costs="203.68"/>
    </person>
    <person id="120" type="DEFAULT_PEDTYPE" depart="157.40">
        <personTrip from="29033731" to="429515619#0" walkFactor="0.75" costs="295.44"/>
    </person>
    <person id="121" type="DEFAULT_PEDTYPE" depart="160.80">
        <personTrip from="655717643" to="28710621#1" walkFactor="0.75" costs="658.18"/>
    </person>
    <person id="122" type="DEFAULT_PEDTYPE" depart="165.80">
        <personTrip from="545476129#5" to="655717643" walkFactor="0.75" costs="80.15"/>
    </person>
    <person id="123" type="DEFAULT_PEDTYPE" depart="166.20">
        <personTrip from="484335723#1" to="1132162843#2" walkFactor="0.75" costs="191.48"/>
    </person>
    <person id="124" type="DEFAULT_PEDTYPE" depart="168.00">
        <personTrip from="191987465#0" to="655717640#1" walkFactor="0.75" costs="264.35"/>
    </person>
    <person id="125" type="DEFAULT_PEDTYPE" depart="168.80">
        <personTrip from="995252087#1" to="998769533" walkFactor="0.75" costs="228.84"/>
    </person>
    <person id="126" type="DEFAULT_PEDTYPE" depart="169.00">
        <personTrip from="191979127#0" to="23195795" walkFactor="0.75" costs="327.93"/>
    </person>
    <person id="127" type="DEFAULT_PEDTYPE" depart="169.40">
        <personTrip from="-23195751#2" to="1144160275#0" walkFactor="0.75" costs="385.80"/>
    </person>
    <person id="128" type="DEFAULT_PEDTYPE" depart="169.40">
        <personTrip from="28709110" to="-23196319" walkFactor="0.75" costs="147.34"/>
    </person>
    <person id="129" type="DEFAULT_PEDTYPE" depart="171.40">
        <personTrip from="1002422788#1" to="-191987466" walkFactor="0.75" costs="222.12"/>
    </person>
    <person id="130" type="DEFAULT_PEDTYPE" depart="175.20">
        <personTrip from="193099645#0" to="28710621#0" walkFactor="0.75" costs="856.68"/>
    </person>
    <person id="131" type="DEFAULT_PEDTYPE" depart="177.60">
        <personTrip from="-184427426#3" to="1002422788#1" walkFactor="0.75" costs="340.96"/>
    </person>
    <person id="132" type="DEFAULT_PEDTYPE" depart="177.60">
        <personTrip from="1144160275#1" to="1132162843#1" walkFactor="0.75" costs="138.28"/>
    </person>
    <person id="133" type="DEFAULT_PEDTYPE" depart="177.80">
        <personTrip from="-191959706#1" to="998769533" walkFactor="0.75" costs="260.97"/>
    </person>
    <person id="134" type="DEFAULT_PEDTYPE" depart="178.40">
        <personTrip from="23195803#2" to="996144772#1" walkFactor="0.75" costs="146.84"/>
    </person>
    <person id="135" type="DEFAULT_PEDTYPE" depart="179.20">
        <personTrip from="1132162843#1" to="539419146#1" walkFactor="0.75" costs="277.97"/>
    </person>
    <person id="136" type="DEFAULT_PEDTYPE" depart="180.00">
        <personTrip from="461160629" to="23195751#1" walkFactor="0.75" costs="603.42"/>
    </person>
    <person id="137" type="DEFAULT_PEDTYPE" depart="181.40">
        <personTrip from="29241566" to="28710621#0" walkFactor="0.75" costs="672.64"/>
    </person>
    <person id="138" type="DEFAULT_PEDTYPE" depart="183.00">
        <personTrip from="-191987465#0" to="353382750#1" walkFactor="0.75" costs="226.15"/>
    </person>
    <person id="139" type="DEFAULT_PEDTYPE" depart="183.40">
        <personTrip from="23195792#0" to="184427426#4" walkFactor="0.75" costs="370.37"/>
    </person>
    <person id="140" type="DEFAULT_PEDTYPE" depart="188.20">
        <personTrip from="996022767" to="-185271779#4" walkFactor="0.75" costs="193.01"/>
    </person>
    <person id="141" type="DEFAULT_PEDTYPE" depart="188.20">
        <personTrip from="28710621#3" to="23195803#2" walkFactor="0.75" costs="182.70"/>
    </person>
    <person id="142" type="DEFAULT_PEDTYPE" depart="190.20">
        <personTrip from="23195328#2" to="29033731" walkFactor="0.75" costs="270.32"/>
    </person>
    <person id="143" type="DEFAULT_PEDTYPE" depart="192.60">
        <personTrip from="545476129#5" to="28999595#1" walkFactor="0.75" costs="196.32"/>
    </person>
    <person id="144" type="DEFAULT_PEDTYPE" depart="194.80">
        <personTrip from="28719125#0" to="-191979123#0" walkFactor="0.75" costs="206.05"/>
    </person>
    <person id="145" type="DEFAULT_PEDTYPE" depart="196.40">
        <personTrip from="-28718922#1" to="998769533" walkFactor="0.75" costs="120.15"/>
    </person>
    <person id="146" type="DEFAULT_PEDTYPE" depart="197.20">
        <personTrip from="23195799#0" to="-32062050#0" walkFactor="0.75" costs="99.47"/>
    </person>
    <person id="147" type="DEFAULT_PEDTYPE" depart="198.40">
        <personTrip from="1144160277" to="23683441#1" walkFactor="0.75" costs="141.29"/>
    </person>
    <person id="148" type="DEFAULT_PEDTYPE" depart="200.20">
        <personTrip from="996144772#1" to="461160629" walkFactor="0.75" costs="506.02"/>
    </person>
    <person id="149" type="DEFAULT_PEDTYPE" depart="201.40">
        <personTrip from="522497449" to="28710751" walkFactor="0.75" costs="327.90"/>
    </person>
    <person id="150" type="DEFAULT_PEDTYPE" depart="202.00">
        <personTrip from="193099645#0" to="23195754#4" walkFactor="0.75" costs="569.72"/>
    </person>
    <person id="151" type="DEFAULT_PEDTYPE" depart="204.80">
        <personTrip from="-191979123#0" to="322548792#1" walkFactor="0.75" costs="394.92"/>
    </person>
    <person id="152" type="DEFAULT_PEDTYPE" depart="210.20">
        <personTrip from="184427426#3" to="23195752#2" walkFactor="0.75" costs="513.43"/>
    </person>
    <person id="153" type="DEFAULT_PEDTYPE" depart="212.80">
        <personTrip from="1132162844#0" to="1149634794#1" walkFactor="0.75" costs="109.54"/>
    </person>
    <person id="154" type="DEFAULT_PEDTYPE" depart="213.00">
        <personTrip from="545476129#5" to="29033734#1" walkFactor="0.75" costs="123.37"/>
    </person>
    <person id="155" type="DEFAULT_PEDTYPE" depart="214.20">
        <personTrip from="647789892" to="190606085" walkFactor="0.75" costs="187.14"/>
    </person>
    <person id="156" type="DEFAULT_PEDTYPE" depart="216.40">
        <personTrip from="23195499#0" to="539483278" walkFactor="0.75" costs="320.56"/>
    </person>
    <person id="157" type="DEFAULT_PEDTYPE" depart="217.80">
        <personTrip from="-23196319" to="23195501#1" walkFactor="0.75" costs="197.91"/>
    </person>
    <person id="158" type="DEFAULT_PEDTYPE" depart="218.00">
        <personTrip from="23195734" to="28710410" walkFactor="0.75" costs="435.08"/>
    </person>
    <person id="159" type="DEFAULT_PEDTYPE" depart="218.60">
        <personTrip from="1149942855" to="-28998663#0" walkFactor="0.75" costs="268.87"/>
    </person>
    <person id="160" type="DEFAULT_PEDTYPE" depart="222.40">
        <personTrip from="545476127#1" to="995252087#1" walkFactor="0.75" costs="572.35"/>
    </person>
    <person id="161" type="DEFAULT_PEDTYPE" depart="225.20">
        <personTrip from="23195794#0" to="584987256" walkFactor="0.75" costs="229.71"/>
    </person>
    <person id="162" type="DEFAULT_PEDTYPE" depart="225.40">
        <personTrip from="-28719125#0" to="474164620#0" walkFactor="0.75" costs="281.18"/>
    </person>
    <person id="163" type="DEFAULT_PEDTYPE" depart="225.60">
        <personTrip from="545476129#5" to="191959706#0" walkFactor="0.75" costs="499.97"/>
    </person>
    <person id="164" type="DEFAULT_PEDTYPE" depart="228.40">
        <personTrip from="29033731" to="998769531" walkFactor="0.75" costs="340.29"/>
    </person>
    <person id="165" type="DEFAULT_PEDTYPE" depart="229.00">
        <personTrip from="-23196319" to="-998769538#0" walkFactor="0.75" costs="139.08"/>
    </person>
    <person id="166" type="DEFAULT_PEDTYPE" depart="231.60">
        <personTrip from="997944679" to="190606070" walkFactor="0.75" costs="496.72"/>
    </person>
    <person id="167" type="DEFAULT_PEDTYPE" depart="232.00">
        <personTrip from="1002422788#0" to="123592772#2" walkFactor="0.75" costs="240.89"/>
    </person>
    <person id="168" type="DEFAULT_PEDTYPE" depart="232.40">
        <personTrip from="-998769536#1" to="996022767" walkFactor="0.75" costs="182.73"/>
    </person>
    <person id="169" type="DEFAULT_PEDTYPE" depart="236.00">
        <personTrip from="28999595#1" to="28999595#1" walkFactor="0.75" costs="0.00"/>
    </person>
    <person id="170" type="DEFAULT_PEDTYPE" depart="237.40">
        <personTrip from="190606085" to="-23195799#0" walkFactor="0.75" costs="113.35"/>
    </person>
    <person id="171" type="DEFAULT_PEDTYPE" depart="240.60">
        <personTrip from="996022767" to="545476129#4" walkFactor="0.75" costs="426.77"/>
    </person>
    <person id="172" type="DEFAULT_PEDTYPE" depart="241.20">
        <personTrip from="184427434#0" to="29033802" walkFactor="0.75" costs="140.75"/>
    </person>
    <person id="173" type="DEFAULT_PEDTYPE" depart="242.20">
        <personTrip from="1149942855" to="545476127#1" walkFactor="0.75" costs="436.28"/>
    </person>
    <person id="174" type="DEFAULT_PEDTYPE" depart="242.80">
        <personTrip from="647789892" to="-191959714" walkFactor="0.75" costs="281.33"/>
    </person>
    <person id="175" type="DEFAULT_PEDTYPE" depart="243.40">
        <personTrip from="996022769#1" to="23195754#1" walkFactor="0.75" costs="204.94"/>
    </person>
    <person id="176" type="DEFAULT_PEDTYPE" depart="243.60">
        <personTrip from="-474164620#0" to="584987256" walkFactor="0.75" costs="308.29"/>
    </person>
    <person id="177" type="DEFAULT_PEDTYPE" depart="247.00">
        <personTrip from="1001467661" to="23195749#1" walkFactor="0.75" costs="306.84"/>
    </person>
    <person id="178" type="DEFAULT_PEDTYPE" depart="249.40">
        <personTrip from="123592772#1" to="23195734" walkFactor="0.75" costs="169.43"/>
    </person>