<?xml version="1.0" encoding="UTF-8"?>

<!-- generated on 2023-04-05 13:07:33.356978 by randomTrips.py v1_15_0+0682-ef022823415
<configuration>
    <end value="10000"/>
    <length value="True"/>
    <net-file value="/home/toore/Tirocinio_SUMO/Scenario/scenario_per_tesi/2023-03-31-10-37-43/osm.net.xml"/>
    <pedestrians value="True"/>
    <period value="1.4"/>
    <random value="True"/>
    <random-depart value="True"/>
    <route-file value="peds.rou.xml"/>
    <seed value="10000"/>
    <trip-attributes value="type=&quot;DEFAULT_PEDTYPE&quot;"/>
</configuration>
-->

<!-- generated on Wed Apr  5 13:07:32 2023 by Eclipse SUMO duarouter Version 1.8.0
<configuration xmlns:xsi="http://www.w3.org/2001/XMLSchema-instance" xsi:noNamespaceSchemaLocation="http://sumo.dlr.de/xsd/duarouterConfiguration.xsd">

    <input>
        <net-file value="/home/toore/Tirocinio_SUMO/Scenario/scenario_per_tesi/2023-03-31-10-37-43/osm.net.xml"/>
        <route-files value="trips.trips.xml"/>
    </input>

    <output>
        <output-file value="peds.rou.xml"/>
        <alternatives-output value="NUL"/>
    </output>

    <time>
        <begin value="0"/>
        <end value="10000"/>
    </time>

    <report>
        <no-warnings value="true"/>
        <ignore-errors value="true"/>
        <no-step-log value="true"/>
    </report>

</configuration>
-->

<routes xmlns:xsi="http://www.w3.org/2001/XMLSchema-instance" xsi:noNamespaceSchemaLocation="http://sumo.dlr.de/xsd/routes_file.xsd">
    <person id="0" type="DEFAULT_PEDTYPE" depart="1.40">
        <walk edges="23195749#0 191979127#3 191979127#0 28709107#1 28709107#0 -522833720#0 522833719 522833729#1 23195792#0"/>
    </person>
    <person id="1" type="DEFAULT_PEDTYPE" depart="2.40">
        <walk edges="191871225#2 28998662#0 28998662#1 28998662#2 28998662#3 522833729#1 522833732#1 522833731#1 1132162843#2 1132162843#1 522833750#1 522833741#1 522833744 -191987465#1 -191987465#0 522431205 191987466 29033732 23196322#0 -184427426#3"/>
    </person>
    <person id="2" type="DEFAULT_PEDTYPE" depart="7.40">
        <walk edges="545476129#5 484335723#1 484335723#2 190606081 23195795 1132162844#0 1132162844#1 1132162843#2 522833731#1 522833732#1"/>
    </person>
    <person id="3" type="DEFAULT_PEDTYPE" depart="8.40">
        <walk edges="190606083 23195792#0 522833732#1 522833731#1 1132162843#2"/>
    </person>
    <person id="4" type="DEFAULT_PEDTYPE" depart="8.60">
        <walk edges="23195754#4 997944684 23195754#1 322548792#6 545496366#1 1001467661 23195328#0 522497449 1000553425 1000553424#1 1000553424#0 185271779#2 1132162842#1 522833750#1 522833741#1 522833744 -191987465#1 -191987465#0 522431205 191987466 29033732 23196322#0 184427426#4 -184427426#4"/>
    </person>
    <person id="5" type="DEFAULT_PEDTYPE" depart="11.60">
        <walk edges="54704028#1 54704028#0 998769538#0 545477613#0 545477613#1 545477613#2 452767836#0 452767836#1 28709107#0 191979121 191979122 995665523#0"/>
    </person>
    <person id="7" type="DEFAULT_PEDTYPE" depart="12.40">
        <walk edges="997944679 23195755#0 -322548792#3 -322548792#2 -322548792#1"/>
    </person>
    <person id="8" type="DEFAULT_PEDTYPE" depart="12.60">
        <walk edges="-522833746 522833750#1 1132162843#1 1132162843#2 522833731#1 522833732#1 522833729#1 522833719 -522833720#0 28709107#0 28709107#1 191979127#0 191979127#3 23195749#0"/>
    </person>
    <person id="9" type="DEFAULT_PEDTYPE" depart="14.20">
        <walk edges="23195502#1 191959714 522833721 -191979122 -191979121 -522833720#0 522833719 522833729#1 522833732#1 522833731#1 1132162843#2 1132162844#1 1132162844#0 190606070 190606085"/>
    </person>
    <person id="10" type="DEFAULT_PEDTYPE" depart="16.20">
        <walk edges="995252087#1 28710621#4 28710689"/>
    </person>
    <person id="11" type="DEFAULT_PEDTYPE" depart="17.20">
        <walk edges="28710934 -191959712#0 996022767 167255138#1 28710621#3 28710621#2 28710621#1 28710621#0"/>
    </person>
    <person id="12" type="DEFAULT_PEDTYPE" depart="19.60">
        <walk edges="191959712#0 191959714 522833721 -191979122 -191979121 -522833720#0 522833719 522833729#1 522833732#1 522833731#1 1132162843#2 1132162843#1 522833750#1 28718922#1"/>
    </person>
    <person id="13" type="DEFAULT_PEDTYPE" depart="20.60">
        <walk edges="23195798 474164620#0 661212190 190606088#1 184427434#0 522833732#1 522833729#1 1149633799 28708934#0 998769538#1 -998769538#0 54704028#0 998769529 322548792#6 322548792#4 -322548792#3 192464423"/>
    </person>
    <person id="14" type="DEFAULT_PEDTYPE" depart="20.80">
        <walk edges="539483278 184427426#3 23196322#0 29033732 -191987466 522431205 191987465#0 191987465#1 522833744 522833741#1 522833750#1 1132162842#1 -185271779#2 1000553424#0 1000553424#1 1000553425 28717086 998769540#1"/>
    </person>
    <person id="15" type="DEFAULT_PEDTYPE" depart="22.60">
        <walk edges="23195502#1 191959714 522833721 23195752#2 996144772#1"/>
    </person>
    <person id="16" type="DEFAULT_PEDTYPE" depart="22.60">
        <walk edges="28710755#0 28710755#2 -191959706#0 191959706#1"/>
    </person>
    <person id="17" type="DEFAULT_PEDTYPE" depart="22.80">
        <walk edges="23195799#0 190606081 190606089 191785971 190606088#0 190606088#1 184427443 190606083 655693840 655693839 191871225#3 191871225#2 191871225#1 191871225#0 193099645#0"/>
    </person>
    <person id="18" type="DEFAULT_PEDTYPE" depart="23.60">
        <walk edges="28998662#2 353382753 353382750#1 1002422788#1 1002422788#0 -522833720#0 28709107#0 28709107#1 191979127#0 996144772#1 28710755#2 28710755#0"/>
    </person>
    <person id="19" type="DEFAULT_PEDTYPE" depart="24.20">
        <walk edges="461160629 23195734 -23195499#1 23195499#0 522833744 522833741#1 522833750#1 1132162843#1 1132162843#2 522833731#1 522833732#1 522833729#1 522833719 -522833720#0 28709107#0 28709107#1 191979127#0 191979127#3"/>
    </person>
    <person id="20" type="DEFAULT_PEDTYPE" depart="25.80">
        <walk edges="-322548792#6 998769529 54704028#0 -998769538#0 998769538#1 28708934#0 1149633799 522833729#1 522833732#1 522833731#1 1132162843#2 1132162844#1 1132162844#0 23195795 190606081 484335723#2 484335723#1 484335723#0 485720696 -397927055#0 191987468#1 539419137#1"/>
    </person>
    <person id="21" type="DEFAULT_PEDTYPE" depart="26.80">
        <walk edges="461160629 23195734 23195499#2 -1144028925 484335723#0 545476129#5"/>
    </person>
    <person id="22" type="DEFAULT_PEDTYPE" depart="27.40">
        <walk edges="996022769#1 996022767 191959714 522833721 -191979122 -191979121 -522833720#0 522833719 522833729#1 522833732#1 184427434#0"/>
    </person>
    <person id="23" type="DEFAULT_PEDTYPE" depart="29.00">
        <walk edges="-23195496 545476127#0 655717649#6 655717647 539419147#1 191987468#1 23195736 461160629"/>
    </person>
    <person id="24" type="DEFAULT_PEDTYPE" depart="30.20">
        <walk edges="23195795 1132162844#0 1132162844#1 1132162843#2 998769535#1 998769535#0 998769540#0 998769540#1 998769532 429515619#0 429515619#1"/>
    </person>
    <person id="25" type="DEFAULT_PEDTYPE" depart="33.80">
        <walk edges="28710934 -191959712#0 191959714 522833721 -191979122 -191979121 -522833720#0 522833719 522833729#1 522833732#1 522833731#1 998769535#1 388909094"/>
    </person>
    <person id="26" type="DEFAULT_PEDTYPE" depart="35.80">
        <walk edges="1001467663 -191987465#1 -191987465#0 522431205 123592772#1 123592772#2 190606077#2 190606077#3 587561458"/>
    </person>
    <person id="27" type="DEFAULT_PEDTYPE" depart="36.20">
        <walk edges="-23195751#2 -23195751#1"/>
    </person>
    <person id="28" type="DEFAULT_PEDTYPE" depart="37.60">
        <walk edges="192464423 322548792#3 -322548792#4 322548792#6 998769529 54704028#0 998769538#0 998769538#1 28708934#0 1149633799 28998662#3 28998662#2 28998662#1 28998662#0 191871225#3 23195503"/>
    </person>
    <person id="29" type="DEFAULT_PEDTYPE" depart="39.60">
        <walk edges="28999595#1 522833741#1 522833744 23195499#0 -23195499#1 23195499#2 -1144028925 485720696 539419136 539419145#1 655717649#3 545476127#1"/>
    </person>
    <person id="30" type="DEFAULT_PEDTYPE" depart="39.80">
        <walk edges="28998662#3 522833729#1 522833732#1 522833731#1 1132162843#2 1132162843#1 522833750#1 522833741#1 522833744 -191987465#1 -191987465#0 522431205 123592772#1 123592772#2 190606077#2 190606077#3 190606077#4 190606077#5"/>
    </person>
    <person id="31" type="DEFAULT_PEDTYPE" depart="44.40">
        <walk edges="452767836#1 452767836#0 545477613#2 545477613#1 545477613#0 998769538#0 54704028#0 998769529 28708932"/>
    </person>
    <person id="32" type="DEFAULT_PEDTYPE" depart="45.00">
        <walk edges="1149633799 28708934#0 998769538#1 -998769538#0 54704028#0 998769529 322548792#6 -322548792#4"/>
    </person>
    <person id="33" type="DEFAULT_PEDTYPE" depart="46.80">
        <walk edges="23195803#2 23195803#1 -191979122 -191979121 -522833720#0 522833719 522833729#1 522833732#1 522833731#1 998769535#1 998769541#1"/>
    </person>
    <person id="34" type="DEFAULT_PEDTYPE" depart="49.00">
        <walk edges="29072597#1 184427426#3 23196322#0 29033732 -191987466 522431205 191987465#0 191987465#1 522833744 522833741#1 522833750#1 1132162843#1 1132162843#2 522833731#1 522833732#1 522833729#1 522833719 -522833720#0 191979121 191979122 522833721 -191959714 23195502#1"/>
    </person>
    <person id="35" type="DEFAULT_PEDTYPE" depart="56.80">
        <walk edges="28710621#1 -23195751#1 23195751#2 -191959706#1 -191959706#0 996144772#1 191979127#0 28709107#1 28709107#0 -522833720#0 522833719 522833729#1 522833732#1 522833731#1 1132162843#2 1132162844#1 1132162844#0 23195795 190606081 484335723#2 484335723#1 484335723#0 485720696 -485720694 655717650#1 655717650#0 -32062050#0"/>
    </person>
    <person id="36" type="DEFAULT_PEDTYPE" depart="58.60">
        <walk edges="29033731 190606077#0 23195734 23195499#2 -1144028925 484335723#0 484335723#1 484335723#2 190606081 190606089 191785971 190606088#0 190606088#1 184427434#0"/>
    </person>
    <person id="37" type="DEFAULT_PEDTYPE" depart="58.80">
        <walk edges="28710751 28710755#2 996144772#1 191979127#0 28709107#1 452767836#1 452767836#0 545477613#2 545477613#1 545477613#0 998769538#1 28708934#0 28708934#1"/>
    </person>
    <person id="38" type="DEFAULT_PEDTYPE" depart="59.80">
        <walk edges="23195794#0 191785971 190606089 190606081 484335723#2 484335723#1 484335723#0 -1144028925 23195499#2 23195734 190606077#0 190606077#1 190606077#2 190606077#3 190606077#4 190606077#5"/>
    </person>
    <person id="39" type="DEFAULT_PEDTYPE" depart="60.60">
        <walk edges="474164620#0 661212190 190606088#1 184427434#0 522833732#1 522833729#1 1149633799 28708934#0 998769538#1 -998769538#0 54704028#0 998769529 322548792#6 23195754#1"/>
    </person>
    <person id="40" type="DEFAULT_PEDTYPE" depart="64.60">
        <walk edges="996144772#1 191979127#0 28709107#1 452767836#1 452767836#0 545477613#2"/>
    </person>
    <person id="41" type="DEFAULT_PEDTYPE" depart="64.80">
        <walk edges="647789892 647789889#1 647789889#0 -545496366#1 322548792#6 322548792#4 23195755#0"/>
    </person>
    <person id="42" type="DEFAULT_PEDTYPE" depart="69.60">
        <walk edges="655717643 -435838563 397425078 -474164620#0 661212190 190606088#1 184427443 190606083 655693840 655693839 191871225#3 28998662#0 28998662#1 28998662#2 1144160275#0"/>
    </person>
    <person id="43" type="DEFAULT_PEDTYPE" depart="70.40">
        <walk edges="-998769537 1149633799 28708934#0 998769538#1 -998769538#0 54704028#0 998769529 322548792#6 322548792#4 -322548792#3 -322548792#2 28710410 -23195751#2 -23195751#1 28710621#0"/>
    </person>
    <person id="44" type="DEFAULT_PEDTYPE" depart="71.00">
        <walk edges="1132162844#1 1132162843#2 522833731#1 522833732#1 522833729#1 522833719 -522833720#0 28709107#0 28709107#1 191979127#0 191979127#3 23195749#0 23195749#1"/>
    </person>
    <person id="45" type="DEFAULT_PEDTYPE" depart="72.20">
        <walk edges="-191979123#0 522833719 522833729#1 522833732#1 522833731#1 1132162843#2 1132162844#1 1132162844#0 23195795"/>
    </person>
    <person id="46" type="DEFAULT_PEDTYPE" depart="74.40">
        <walk edges="23195792#0 522833729#1 1149633799 28708934#0 998769538#1 -998769538#0 54704028#0 998769529 322548792#6 322548792#4 -322548792#3 192464423"/>
    </person>
    <person id="47" type="DEFAULT_PEDTYPE" depart="75.00">
        <walk edges="28710934 -191959712#0 191959714 522833721 -191979122 193099645#2 193099645#1 191871225#0 23195801"/>
    </person>
    <person id="48" type="DEFAULT_PEDTYPE" depart="75.20">
        <walk edges="-184427426#0 184427426#1 184427426#3 23196322#0 29033732 -191987466 522431205 191987465#0 191987465#1 522833744 522833741#1 522833750#1 1132162842#1 -185271779#2 1000553424#0 1000553424#1 1000553425 522497449 23195328#0 1001467661 -545496366#1 322548792#6 322548792#4 -322548792#3 -322548792#2 28710410 -23195751#2 -23195751#1 28710621#0"/>
    </person>
    <person id="49" type="DEFAULT_PEDTYPE" depart="76.60">
        <walk edges="193099645#1 191871225#0 191871225#1 191871225#2 191871225#3 655693839 655693840 190606083 184427443 190606088#1 661212190 474164620#2"/>
    </person>
    <person id="50" type="DEFAULT_PEDTYPE" depart="77.60">
        <walk edges="1149942855 647789889#0 1001467661 23195328#0 522497449 1000553425 1000553424#1 1000553424#0 185271779#2 1132162842#1 522833750#1 522833741#1 522833744 28719125#1 522431207 29241566"/>
    </person>
    <person id="51" type="DEFAULT_PEDTYPE" depart="80.00">
        <walk edges="28710790 28710621#3 167255138#1 117561950 191959704#0 191979127#3 191979127#0 28709107#1 452767836#1 452767836#0 545477613#2 545477613#1 545477613#0 998769538#1 28708934#0 28708934#1 28708934#2 998769535#0"/>
    </person>
    <person id="52" type="DEFAULT_PEDTYPE" depart="80.00">
        <walk edges="-23195499#1 23195499#0 522833744 522833741#1 522833750#1 1132162843#1 1132162843#2 522833731#1 522833732#1 522833729#1 522833719 -522833720#0 191979121 191979122 522833721 -191959714 996022767"/>
    </person>
    <person id="53" type="DEFAULT_PEDTYPE" depart="80.40">
        <walk edges="185271779#3 185271779#2 1132162842#1 522833750#1 522833741#1 522833744 -191987465#1 584987256"/>
    </person>
    <person id="54" type="DEFAULT_PEDTYPE" depart="82.60">
        <walk edges="996364918 23195754#5 23195752#0 -191959706#0 191959706#1 28710410 -322548792#1"/>
    </person>
    <person id="55" type="DEFAULT_PEDTYPE" depart="87.60">
        <walk edges="28999595#1 522833750#1 1132162843#1 1132162843#2 522833731#1 522833732#1 522833729#1 522833719 -522833720#0 191979121 191979122 522833721 -191959714 28710689"/>
    </person>
    <person id="56" type="DEFAULT_PEDTYPE" depart="88.40">
        <walk edges="-23195499#1 23195499#0 522833744 522833741#1 522833750#1 1132162842#1 -185271779#2 1000553424#0 1000553424#1 1000553425 522497449 23195328#0 1001467661 -545496366#1 998769529"/>
    </person>
    <person id="57" type="DEFAULT_PEDTYPE" depart="89.80">
        <walk edges="23195501#1 522833729#1 522833732#1 522833731#1 1132162843#2 1132162843#1 522833750#1 522833741#1 522833744 -191987465#1 -191987465#0 522431205 191987466 29033732 23196322#0 -184427426#3 184427426#1"/>
    </person>
    <person id="58" type="DEFAULT_PEDTYPE" depart="90.60">
        <walk edges="23195499#2 23195734 190606077#0 190606077#1 190606077#2 190606077#3 190606077#4 190606077#5 -184427426#1 -184427426#0"/>
    </person>
    <person id="59" type="DEFAULT_PEDTYPE" depart="90.80">
        <walk edges="23195736 397927055#0 -485720696 484335723#0 484335723#1 484335723#2 190606081 23195795 1132162844#0 1132162844#1 1132162843#2 522833731#1 522833732#1 522833729#1 522833719 -522833720#0 191979121 191979122 522833721 191959704#1 117561950"/>
    </person>
    <person id="60" type="DEFAULT_PEDTYPE" depart="91.40">
        <walk edges="29241566 522431207 28719125#1 522833744 522833741#1 -522833746"/>
    </person>
    <person id="61" type="DEFAULT_PEDTYPE" depart="92.00">
        <walk edges="322548792#6 545496366#1 1001467661 23195328#0 522497449 1000553425 1000553424#1 1000553424#0 185271779#2 1132162842#1 522833750#1 522833741#1 522833744 -191987465#1 -191987465#0 522431205 123592772#1 123592772#2 190606077#2 29033803 190606079#0"/>
    </person>
    <person id="62" type="DEFAULT_PEDTYPE" depart="92.40">
        <walk edges="522497449 23195328#0 1001467661 -545496366#1 322548792#6 23195754#1 997944684 23195754#4 23195754#5 23195752#0 28710755#2 -28710755#0"/>
    </person>
    <person id="63" type="DEFAULT_PEDTYPE" depart="92.60">
        <walk edges="-23195496 545476127#0 545476127#1 655717649#3 539419145#1 539419136 -485720696 484335723#0 484335723#1 484335723#2 190606081 23195795 1132162844#0 1132162844#1 1132162843#2 522833731#1 522833732#1 522833729#1 -998769537"/>
    </person>
    <person id="64" type="DEFAULT_PEDTYPE" depart="92.80">
        <walk edges="-184427426#0 184427426#1 184427426#3 23196322#0 29033732 -191987466 522431205 191987465#0 191987465#1 522833744 522833741#1 522833750#1 1132162843#1 1132162843#2 522833731#1 522833732#1 522833729#1 522833719 -522833720#0 191979121 191979122 23195803#1 1144160277"/>
    </person>
    <person id="65" type="DEFAULT_PEDTYPE" depart="96.00">
        <walk edges="-28718922#1 388912103 23195328#1 23195328#0 998769532 998769533 998769539 54704028#1 54704028#0 998769538#0 545477613#0 545477613#1 545477613#2 452767836#0 452767836#1"/>
    </person>
    <person id="66" type="DEFAULT_PEDTYPE" depart="98.00">
        <walk edges="995252087#1 167255138#1 996022767 191959714 522833721 -191979122 -191979121 -522833720#0 522833719 522833729#1 522833732#1 522833731#1 1132162843#2 1132162843#1 522833750#1 522833741#1 522833744 -191987465#1 -191987465#0 522431205 123592772#1"/>
    </person>
    <person id="67" type="DEFAULT_PEDTYPE" depart="98.60">
        <walk edges="23195755#0 -322548792#4 322548792#6 545496366#1 1001467661 23195328#0 23195328#1 23195328#2"/>
    </person>
    <person id="68" type="DEFAULT_PEDTYPE" depart="99.00">
        <walk edges="-191979122 -191979121 -522833720#0 522833719 522833729#1 522833732#1 522833731#1 23195794#1 23195794#0"/>
    </person>
    <person id="69" type="DEFAULT_PEDTYPE" depart="99.20">
        <walk edges="23195751#2 191959706#1 -191959706#0 996144772#1 191979127#0"/>
    </person>
    <person id="70" type="DEFAULT_PEDTYPE" depart="99.40">
        <walk edges="184427426#0 190606073 539419137#1 191987468#1 397927055#0 -485720696 484335723#0 484335723#1 484335723#2 190606081 23195795 1132162844#0 1132162844#1 1132162843#2 522833731#1 522833732#1 522833729#1 23195501#1"/>
    </person>
    <person id="71" type="DEFAULT_PEDTYPE" depart="99.80">
        <walk edges="23195754#4 997944684 23195754#2 -23196319 545477613#2 545477613#1 545477613#0 998769538#1 28708934#0 1149633799 522833729#1 522833732#1 184427434#0 184427443"/>
    </person>
    <person id="72" type="DEFAULT_PEDTYPE" depart="100.40">
        <walk edges="-23195496 545476127#0 545476127#1 655717649#3 539419145#1 539419136 -485720696 484335723#0 484335723#1 484335723#2 190606081 23195795 1132162844#0 1132162844#1 1132162843#2 522833731#1 522833732#1 522833729#1 1149633799 28708934#0 998769538#1 -998769538#0 54704028#0 998769529 322548792#6 322548792#4 -322548792#3 -322548792#2 28710410 -23195751#2 -23195751#1 -23195751#0"/>
    </person>
    <person id="73" type="DEFAULT_PEDTYPE" depart="101.40">
        <walk edges="322548792#2 322548792#3 -322548792#4 322548792#6 545496366#1 1001467661 23195328#0 522497449 1000553425 1000553424#1 1000553424#0 185271779#2 1132162842#1 522833750#1 522833741#1 522833744 23195499#0 -23195499#1 23195734 461160629"/>
    </person>
    <person id="74" type="DEFAULT_PEDTYPE" depart="101.60">
        <walk edges="522497449"/>
    </person>
    <person id="75" type="DEFAULT_PEDTYPE" depart="106.00">
        <walk edges="32062050#1 655717650#0 655717650#1 -485720694 -485720696 484335723#0 484335723#1 484335723#2 190606081 23195795 1132162844#0 1132162844#1 1132162843#2 522833731#1 522833732#1 522833729#1 23195501#1"/>
    </person>
    <person id="76" type="DEFAULT_PEDTYPE" depart="107.20">
        <walk edges="23195803#2 23195803#1 23195752#2 996364918 23195754#4 997944684 23195754#1 322548792#4 23195755#0"/>
    </person>
    <person id="77" type="DEFAULT_PEDTYPE" depart="108.80">
        <walk edges="-23195496 545476127#0 545476127#1 655717649#3 539419145#1 539419136 -485720696 484335723#0 484335723#1 484335723#2 190606081 23195795 1132162844#0 1132162844#1 1132162843#2 522833731#1 522833732#1 522833729#1 1149633799 28708934#0 998769538#1 -998769538#0 54704028#0 998769529 322548792#6 322548792#4 -322548792#3 -322548792#2 28710410 -23195751#2 -23195751#1 23195751#0"/>
    </person>
    <person id="78" type="DEFAULT_PEDTYPE" depart="109.40">
        <walk edges="-322548792#3 -322548792#4 322548792#6 545496366#1 1001467661 23195328#0 522497449 1000553425 1000553424#1 1000553424#0 185271779#2 1132162842#1 522833750#1 522833741#1 522833744 -191987465#1 -191987465#0 522431205 123592772#1 123592772#2 190606077#2 29033803 190606079#0"/>
    </person>
    <person id="79" type="DEFAULT_PEDTYPE" depart="110.40">
        <walk edges="-322548792#6 998769529 54704028#0 -998769538#0 545477613#0 545477613#1 545477613#2 452767836#0 452767836#1 28709107#0 191979121 191979122 522833721 -191959714 -191959712#0"/>
    </person>
    <person id="80" type="DEFAULT_PEDTYPE" depart="111.40">
        <walk edges="-435838563 655717642 655717644#1 545476129#0 655717639 655717640#1 484335723#2 190606085 1132162842#0 1132162842#1 -185271779#2 1000553424#0 1000553424#1 1000553425 522497449 23195328#1"/>
    </person>
    <person id="81" type="DEFAULT_PEDTYPE" depart="112.80">
        <walk edges="28710934 -191959712#0 191959714 522833721 -191979122 -191979121 -522833720#0 522833719 522833729#1 522833732#1 522833731#1 1132162843#2 1132162843#1 522833750#1 522833741#1 522833744 -191987465#1 -191987465#0 522431205 191987466 29033732 23196322#0 184427426#4"/>
    </person>
    <person id="82" type="DEFAULT_PEDTYPE" depart="113.80">
        <walk edges="184427434#0 190606088#1 190606088#0 191785971 190606089 190606081 484335723#2 484335723#1 484335723#0 485720696 -485720694 655717650#1 655717650#0 -32062050#0"/>
    </person>
    <person id="83" type="DEFAULT_PEDTYPE" depart="117.00">
        <walk edges="-522833746 522833750#1 1132162843#1 1132162843#2 522833731#1 522833732#1 522833729#1 28998662#3 1144160275#0"/>
    </person>
    <person id="84" type="DEFAULT_PEDTYPE" depart="119.40">
        <walk edges="28710410 -191959706#1 -191959706#0 28710755#2 28710751"/>
    </person>
    <person id="85" type="DEFAULT_PEDTYPE" depart="122.40">
        <walk edges="184427426#0 190606073 539419137#1 191987468#1 397927055#0 -485720696 484335723#0 484335723#1 484335723#2 190606081 23195795 1132162844#0 1132162844#1 1132162843#2 522833731#1 522833732#1 522833729#1 1149633799 28708934#0 998769538#1 -998769538#0 54704028#0 998769529 322548792#6 322548792#4 -322548792#3 -322548792#2 28710410 -23195751#2 -23195751#1 28710621#1"/>
    </person>
    <person id="86" type="DEFAULT_PEDTYPE" depart="124.60">
        <walk edges="28710621#0 -23195751#1 23195751#2 -191959706#1 -191959706#0 996144772#1 191979127#0 28709107#1 28709107#0 -522833720#0 522833719 23195501#1"/>
    </person>
    <person id="87" type="DEFAULT_PEDTYPE" depart="125.40">
        <walk edges="539483278 184427426#3 23196322#0 29033732 -191987466 522431205 191987465#0 191987465#1 522833744 522833741#1 522833750#1 1132162843#1 1132162843#2 522833731#1 522833732#1 522833729#1 522833719 -522833720#0 191979121 191979122 522833721 -191959714 996022767"/>
    </person>
    <person id="88" type="DEFAULT_PEDTYPE" depart="126.80">
        <walk edges="28710751 28710755#2 996144772#1 191979127#0 28709107#1 28709107#0 -522833720#0 522833719 522833729#1 522833732#1 522833731#1 1132162843#2 1132162844#1 1132162844#0 23195795 190606081 484335723#2 484335723#1 484335723#0 485720696 -485720694 655717650#1 655717650#0 32062050#1"/>
    </person>
    <person id="89" type="DEFAULT_PEDTYPE" depart="129.00">
        <walk edges="23195795 1132162844#0 1132162844#1 1132162843#2 522833731#1 522833732#1 522833729#1 1149633799 28708934#0 998769538#1 -998769538#0 54704028#0 998769529 322548792#6 322548792#4 -322548792#3 -322548792#2 28710410 -23195751#2 -23195751#1 28710621#0"/>
    </person>
    <person id="90" type="DEFAULT_PEDTYPE" depart="131.40">
        <walk edges="1132162844#0 1132162844#1 1132162843#1 522833750#1 -522833746"/>
    </person>
    <person id="91" type="DEFAULT_PEDTYPE" depart="133.00">
        <walk edges="190606079#0 29033803 190606077#2 123592772#2 123592772#1 522431205 191987465#0 191987465#1 522833744 522833741#1 522833750#1 1132162843#1 1132162843#2 522833731#1 522833732#1 522833729#1 522833719 -522833720#0 28709107#0 28709107#1 191979127#0 996144772#1 23195755#1 997944679"/>
    </person>
    <person id="92" type="DEFAULT_PEDTYPE" depart="137.60">
        <walk edges="23195799#0 190606081 23195795 1132162844#0 1132162844#1 1132162843#2 522833731#1 522833732#1 522833729#1 1149633799 28708934#0 998769538#1 -998769538#0 54704028#0 998769529 322548792#6 322548792#4 -322548792#3 322548792#2"/>
    </person>
    <person id="93" type="DEFAULT_PEDTYPE" depart="138.60">
        <walk edges="28708934#1 1149633799 522833729#1 522833732#1 522833731#1 1132162843#2 1132162843#1 522833750#1 522833741#1 522833744 -191987465#1 -191987465#0 522431205 522833753"/>
    </person>
    <person id="94" type="DEFAULT_PEDTYPE" depart="142.00">
        <walk edges="-23196319 23195754#2 23195754#1 322548792#6 545496366#1 998769531 998769533 998769532"/>
    </person>
    <person id="95" type="DEFAULT_PEDTYPE" depart="143.40">
        <walk edges="545476127#1 655717649#3 539419145#1 539419136 -485720696 484335723#0 484335723#1 484335723#2 190606081 190606089 191785971 190606088#0 190606088#1 184427434#0"/>
    </person>
    <person id="96" type="DEFAULT_PEDTYPE" depart="143.60">
        <walk edges="655717637 545476129#2 545476129#1 655717639 655717640#1 484335723#2 190606081 23195795 1132162844#0 1132162844#1 1132162843#2 522833731#1 522833732#1 522833729#1 1149633799 28708934#0 998769538#1 -998769538#0 54704028#0 998769529 -322548792#6"/>
    </person>
    <person id="97" type="DEFAULT_PEDTYPE" depart="144.80">
        <walk edges="28710934 -191959712#0 191959714 522833721 23195752#2 996364918 23195754#4 997944684 23195754#1 -322548792#4"/>
    </person>
    <person id="98" type="DEFAULT_PEDTYPE" depart="147.80">
        <walk edges="29033803 190606077#2 123592772#2 123592772#1 522431205 191987465#0 191987465#1 522833744 522833741#1 522833750#1 1132162843#1 1132162843#2 522833731#1 522833732#1 522833729#1 522833719 -522833720#0 191979121 191979122 522833721 -191959714 996022767 167255138#1 28710621#3"/>
    </person>
    <person id="99" type="DEFAULT_PEDTYPE" depart="149.20">
        <walk edges="28710621#2 28710621#1"/>
    </person>
    <person id="100" type="DEFAULT_PEDTYPE" depart="151.00">
        <walk edges="23196319 545477613#2 545477613#1 545477613#0 998769538#0 54704028#0 998769529 322548792#6 322548792#4 -322548792#3 -322548792#2 -322548792#1 322548792#1"/>
    </person>
    <person id="101" type="DEFAULT_PEDTYPE" depart="156.40">
        <walk edges="998769538#0 998769538#1 28708934#0 1149633799 28998662#3 28998662#2 28998662#1 28998662#0 191871225#2 23195800"/>
    </person>
    <person id="102" type="DEFAULT_PEDTYPE" depart="156.80">
        <walk edges="28710755#2 996144772#1 191979127#0 28709107#1 452767836#1 452767836#0 545477613#2 545477613#1 545477613#0 998769538#1 28708934#0 28708934#1 28708934#2 998769535#0"/>
    </person>
    <person id="103" type="DEFAULT_PEDTYPE" depart="157.00">
        <walk edges="184427426#4 23196322#0 29033732 -191987466 522431205 191987465#0 191987465#1 522833744 522833741#1 522833750#1 1132162843#1 1132162843#2 522833731#1 522833732#1 522833729#1 522833719 -522833720#0 28709107#0 28709107#1 191979127#0 996144772#1"/>
    </person>
    <person id="104" type="DEFAULT_PEDTYPE" depart="157.40">
        <walk edges="-184427426#4 184427426#4 23196322#0 29033732 -191987466 522431205 191987465#0 191987465#1 522833744 522833741#1 522833750#1 1132162842#1 -185271779#2 1000553424#0 1000553424#1 1000553425 522497449 23195328#0 1001467661 -545496366#1 322548792#6 23195338#1"/>
    </person>
    <person id="105" type="DEFAULT_PEDTYPE" depart="158.20">
        <walk edges="-522833720#0 522833719 522833729#1 522833732#1 522833731#1 998769535#1 998769535#0 998769540#0 28717086"/>
    </person>
    <person id="106" type="DEFAULT_PEDTYPE" depart="161.20">
        <walk edges="322548792#1 -322548792#1 322548792#2 322548792#3 -322548792#4 322548792#6 998769529 54704028#0 998769538#0 998769538#1 28708934#0 1149633799 522833719 1002422788#0 1144160275#1"/>
    </person>
    <person id="107" type="DEFAULT_PEDTYPE" depart="161.60">
        <walk edges="-522833720#0 191979121 -191979122 522833721 -191959714 996022767 167255138#1 28710621#3"/>
    </person>
    <person id="108" type="DEFAULT_PEDTYPE" depart="162.60">
        <walk edges="23195752#2 191979127#0 28709107#1 28709107#0 -522833720#0 522833719 522833729#1 522833732#1 522833731#1 1132162843#2 1132162844#1 1132162844#0 23195795 190606081 484335723#2 484335723#1 484335723#0 485720696 -485720694 655717650#1 655717650#0"/>
    </person>
    <person id="109" type="DEFAULT_PEDTYPE" depart="164.60">
        <walk edges="-23195499#1 23195499#0 522833744 522833741#1 522833750#1 1132162842#1 -185271779#2 1000553424#0 1000553424#1 1000553425 522497449 23195328#0 1001467661"/>
    </person>
    <person id="110" type="DEFAULT_PEDTYPE" depart="165.00">