<?xml version="1.0" encoding="UTF-8"?>

<!-- generated on 2023-04-05 13:10:42.346931 by randomTrips.py v1_15_0+0682-ef022823415
<configuration>
    <end value="10000"/>
    <length value="True"/>
    <net-file value="/home/toore/Tirocinio_SUMO/Scenario/scenario_per_tesi/2023-03-31-10-37-43/osm.net.xml"/>
    <pedestrians value="True"/>
    <period value="1.4"/>
    <random value="True"/>
    <random-depart value="True"/>
    <route-file value="peds2.rou.xml"/>
    <trip-attributes value="type=&quot;DEFAULT_PEDTYPE&quot;"/>
</configuration>
-->

<routes xmlns:xsi="http://www.w3.org/2001/XMLSchema-instance" xsi:noNamespaceSchemaLocation="http://sumo.dlr.de/xsd/routes_file.xsd">
    <person id="0" depart="1.80" type="DEFAULT_PEDTYPE">
        <walk from="993984189" to="-23195499#1"/>
    </person>
    <person id="1" depart="2.20" type="DEFAULT_PEDTYPE">
        <walk from="1132162843#2" to="28999595#1"/>
    </person>
    <person id="2" depart="3.20" type="DEFAULT_PEDTYPE">
        <walk from="190606077#5" to="23683441#0"/>
    </person>
    <person id="3" depart="5.00" type="DEFAULT_PEDTYPE">
        <walk from="28710621#0" to="193099645#1"/>
    </person>
    <person id="4" depart="5.40" type="DEFAULT_PEDTYPE">
        <walk from="998885380" to="-23195751#0"/>
    </person>
    <person id="5" depart="6.20" type="DEFAULT_PEDTYPE">
        <walk from="193099645#0" to="996144773"/>
    </person>
    <person id="6" depart="7.20" type="DEFAULT_PEDTYPE">
        <walk from="522833721" to="29033731"/>
    </person>
    <person id="7" depart="8.00" type="DEFAULT_PEDTYPE">
        <walk from="-322548792#1" to="28710934"/>
    </person>
    <person id="8" depart="9.20" type="DEFAULT_PEDTYPE">
        <walk from="28998663#0" to="-322548792#1"/>
    </person>
    <person id="9" depart="18.60" type="DEFAULT_PEDTYPE">
        <walk from="193099645#0" to="29033734#2"/>
    </person>
    <person id="10" depart="19.20" type="DEFAULT_PEDTYPE">
        <walk from="545476129#5" to="998769537"/>
    </person>
    <person id="11" depart="20.40" type="DEFAULT_PEDTYPE">
        <walk from="28709110" to="184427426#3"/>
    </person>
    <person id="12" depart="22.20" type="DEFAULT_PEDTYPE">
        <walk from="353382750#1" to="995252088"/>
    </person>
    <person id="13" depart="24.20" type="DEFAULT_PEDTYPE">
        <walk from="28708932" to="23195336#1"/>
    </person>
    <person id="14" depart="26.20" type="DEFAULT_PEDTYPE">
        <walk from="-32062050#0" to="23195804#0"/>
    </person>
    <person id="15" depart="32.00" type="DEFAULT_PEDTYPE">
        <walk from="587561458" to="23195792#0"/>
    </person>
    <person id="16" depart="33.40" type="DEFAULT_PEDTYPE">
        <walk from="23195502#1" to="461160629"/>
    </person>
    <person id="17" depart="35.40" type="DEFAULT_PEDTYPE">
        <walk from="29072597#1" to="655717640#1"/>
    </person>
    <person id="18" depart="35.80" type="DEFAULT_PEDTYPE">
        <walk from="191979127#0" to="655717649#6"/>
    </person>
    <person id="19" depart="36.20" type="DEFAULT_PEDTYPE">
        <walk from="184427434#0" to="23195749#0"/>
    </person>
    <person id="20" depart="37.40" type="DEFAULT_PEDTYPE">
        <walk from="-522833753" to="29033734#2"/>
    </person>
    <person id="21" depart="40.20" type="DEFAULT_PEDTYPE">
        <walk from="23195499#1" to="-32062050#0"/>
    </person>
    <person id="22" depart="42.40" type="DEFAULT_PEDTYPE">
        <walk from="23195798" to="322548792#0"/>
    </person>
    <person id="23" depart="43.20" type="DEFAULT_PEDTYPE">
        <walk from="-522833746" to="23195792#0"/>
    </person>
    <person id="24" depart="46.60" type="DEFAULT_PEDTYPE">
        <walk from="996144773" to="23195801"/>
    </person>
    <person id="25" depart="48.60" type="DEFAULT_PEDTYPE">
        <walk from="-29072597#1" to="192464423"/>
    </person>
    <person id="26" depart="50.20" type="DEFAULT_PEDTYPE">
        <walk from="1132162844#0" to="193099645#0"/>
    </person>
    <person id="27" depart="50.80" type="DEFAULT_PEDTYPE">
        <walk from="23195794#0" to="-23195499#1"/>
    </person>
    <person id="28" depart="51.00" type="DEFAULT_PEDTYPE">
        <walk from="28998663#0" to="23195755#0"/>
    </person>
    <person id="29" depart="51.60" type="DEFAULT_PEDTYPE">
        <walk from="998769535#0" to="474164620#0"/>
    </person>
    <person id="30" depart="52.20" type="DEFAULT_PEDTYPE">
        <walk from="190606078#1" to="998769537"/>
    </person>
    <person id="31" depart="52.60" type="DEFAULT_PEDTYPE">
        <walk from="192464423" to="23195804#0"/>
    </person>
    <person id="32" depart="53.20" type="DEFAULT_PEDTYPE">
        <walk from="28710621#3" to="28998662#3"/>
    </person>
    <person id="33" depart="53.60" type="DEFAULT_PEDTYPE">
        <walk from="485720694" to="539419146#1"/>
    </person>
    <person id="34" depart="54.00" type="DEFAULT_PEDTYPE">
        <walk from="545476129#5" to="184427426#4"/>
    </person>
    <person id="35" depart="56.20" type="DEFAULT_PEDTYPE">
        <walk from="322548792#0" to="23195749#0"/>
    </person>
    <person id="36" depart="56.60" type="DEFAULT_PEDTYPE">
        <walk from="190606077#5" to="655693841"/>
    </person>
    <person id="37" depart="60.20" type="DEFAULT_PEDTYPE">
        <walk from="1001467661" to="996022767"/>
    </person>
    <person id="38" depart="63.60" type="DEFAULT_PEDTYPE">
        <walk from="123592772#2" to="184427434#0"/>
    </person>
    <person id="39" depart="64.00" type="DEFAULT_PEDTYPE">
        <walk from="28709109#0" to="23195328#2"/>
    </person>
    <person id="40" depart="67.20" type="DEFAULT_PEDTYPE">
        <walk from="23195501#1" to="1002422788#1"/>
    </person>
    <person id="41" depart="68.20" type="DEFAULT_PEDTYPE">
        <walk from="28710621#0" to="23195736"/>
    </person>
    <person id="42" depart="69.60" type="DEFAULT_PEDTYPE">
        <walk from="655717652" to="191959704#1"/>
    </person>
    <person id="43" depart="71.00" type="DEFAULT_PEDTYPE">
        <walk from="191959704#1" to="545496366#1"/>
    </person>
    <person id="44" depart="72.40" type="DEFAULT_PEDTYPE">
        <walk from="184427426#1" to="23195752#1"/>
    </person>
    <person id="45" depart="73.60" type="DEFAULT_PEDTYPE">
        <walk from="-191987465#0" to="997944687"/>
    </person>
    <person id="46" depart="75.20" type="DEFAULT_PEDTYPE">
        <walk from="23195749#0" to="117561950"/>
    </person>
    <person id="47" depart="76.20" type="DEFAULT_PEDTYPE">
        <walk from="28710621#0" to="23195795"/>
    </person>
    <person id="48" depart="76.60" type="DEFAULT_PEDTYPE">
        <walk from="1149634794#1" to="191959706#0"/>
    </person>
    <person id="49" depart="78.00" type="DEFAULT_PEDTYPE">
        <walk from="23195803#2" to="117561950"/>
    </person>
    <person id="50" depart="78.80" type="DEFAULT_PEDTYPE">
        <walk from="1149437440" to="29033732"/>
    </person>
    <person id="51" depart="80.00" type="DEFAULT_PEDTYPE">
        <walk from="655717649#4" to="28710934"/>
    </person>
    <person id="52" depart="80.20" type="DEFAULT_PEDTYPE">
        <walk from="-191987466" to="522497449"/>
    </person>
    <person id="53" depart="81.20" type="DEFAULT_PEDTYPE">
        <walk from="-998769537" to="28710621#1"/>
    </person>
    <person id="54" depart="81.80" type="DEFAULT_PEDTYPE">
        <walk from="23195793" to="-28719125#0"/>
    </person>
    <person id="55" depart="83.60" type="DEFAULT_PEDTYPE">
        <walk from="28710621#3" to="23195499#2"/>
    </person>
    <person id="56" depart="84.00" type="DEFAULT_PEDTYPE">
        <walk from="184427434#0" to="1001467663"/>
    </person>
    <person id="57" depart="85.40" type="DEFAULT_PEDTYPE">
        <walk from="184427434#0" to="193099645#0"/>
    </person>
    <person id="58" depart="86.60" type="DEFAULT_PEDTYPE">
        <walk from="993984189" to="-474164620#0"/>
    </person>
    <person id="59" depart="87.20" type="DEFAULT_PEDTYPE">
        <walk from="996144773" to="539483273"/>
    </person>
    <person id="60" depart="88.00" type="DEFAULT_PEDTYPE">
        <walk from="-184427426#3" to="-28719125#0"/>
    </person>
    <person id="61" depart="88.20" type="DEFAULT_PEDTYPE">
        <walk from="1132162842#0" to="23196322#0"/>
    </person>
    <person id="62" depart="92.60" type="DEFAULT_PEDTYPE">
        <walk from="28710621#0" to="655693839"/>
    </person>
    <person id="63" depart="93.80" type="DEFAULT_PEDTYPE">
        <walk from="-32062050#0" to="28710410"/>
    </person>
    <person id="64" depart="96.40" type="DEFAULT_PEDTYPE">
        <walk from="996022769#1" to="29033732"/>
    </person>
    <person id="65" depart="96.40" type="DEFAULT_PEDTYPE">
        <walk from="1132162844#0" to="28998662#1"/>
    </person>
    <person id="66" depart="96.60" type="DEFAULT_PEDTYPE">
        <walk from="522833750#1" to="-184427426#3"/>
    </person>
    <person id="67" depart="96.80" type="DEFAULT_PEDTYPE">
        <walk from="322548792#2" to="522833741#1"/>
    </person>
    <person id="68" depart="98.80" type="DEFAULT_PEDTYPE">
        <walk from="474164620#0" to="23683441#0"/>
    </person>
    <person id="69" depart="99.00" type="DEFAULT_PEDTYPE">
        <walk from="996144772#1" to="522833732#1"/>
    </person>
    <person id="70" depart="99.20" type="DEFAULT_PEDTYPE">
        <walk from="23195499#2" to="996364918"/>
    </person>
    <person id="71" depart="101.00" type="DEFAULT_PEDTYPE">
        <walk from="1149634794#1" to="29033803"/>
    </person>
    <person id="72" depart="103.60" type="DEFAULT_PEDTYPE">
        <walk from="28718922#1" to="23195503"/>
    </person>
    <person id="73" depart="103.60" type="DEFAULT_PEDTYPE">
        <walk from="193099645#2" to="539483273"/>
    </person>
    <person id="74" depart="103.60" type="DEFAULT_PEDTYPE">
        <walk from="192464423" to="998769541#1"/>
    </person>
    <person id="75" depart="105.00" type="DEFAULT_PEDTYPE">
        <walk from="461160629" to="-184427426#3"/>
    </person>
    <person id="76" depart="106.40" type="DEFAULT_PEDTYPE">
        <walk from="-191959712#0" to="655717649#4"/>
    </person>
    <person id="77" depart="106.60" type="DEFAULT_PEDTYPE">
        <walk from="28710621#0" to="28710621#0"/>
    </person>
    <person id="78" depart="106.80" type="DEFAULT_PEDTYPE">
        <walk from="-23195496" to="-29072597#1"/>
    </person>
    <person id="79" depart="107.20" type="DEFAULT_PEDTYPE">
        <walk from="191959706#1" to="1132162843#1"/>
    </person>
    <person id="80" depart="107.20" type="DEFAULT_PEDTYPE">
        <walk from="-184427426#1" to="29033731"/>
    </person>
    <person id="81" depart="107.80" type="DEFAULT_PEDTYPE">
        <walk from="23195801" to="28718922#1"/>
    </person>
    <person id="82" depart="108.80" type="DEFAULT_PEDTYPE">
        <walk from="28998662#3" to="191987466"/>
    </person>
    <person id="83" depart="109.60" type="DEFAULT_PEDTYPE">
        <walk from="484335723#1" to="655717644#1"/>
    </person>
    <person id="84" depart="111.40" type="DEFAULT_PEDTYPE">
        <walk from="184427434#0" to="23195801"/>
    </person>
    <person id="85" depart="114.20" type="DEFAULT_PEDTYPE">
        <walk from="1149634794#1" to="995665523#0"/>
    </person>
    <person id="86" depart="118.80" type="DEFAULT_PEDTYPE">
        <walk from="-28718922#1" to="-474164620#0"/>
    </person>
    <person id="87" depart="120.80" type="DEFAULT_PEDTYPE">
        <walk from="-23195499#0" to="23195801"/>
    </person>
    <person id="88" depart="123.40" type="DEFAULT_PEDTYPE">
        <walk from="29072594" to="193099645#0"/>
    </person>
    <person id="89" depart="123.60" type="DEFAULT_PEDTYPE">
        <walk from="587561458" to="28710621#0"/>
    </person>
    <person id="90" depart="124.40" type="DEFAULT_PEDTYPE">
        <walk from="23195336#1" to="29033803"/>
    </person>
    <person id="91" depart="125.20" type="DEFAULT_PEDTYPE">
        <walk from="192464423" to="-1149437440"/>
    </person>
    <person id="92" depart="125.40" type="DEFAULT_PEDTYPE">
        <walk from="184427426#3" to="545476129#5"/>
    </person>
    <person id="93" depart="128.20" type="DEFAULT_PEDTYPE">
        <walk from="28708934#1" to="28710621#2"/>
    </person>
    <person id="94" depart="132.80" type="DEFAULT_PEDTYPE">
        <walk from="661212190" to="23195795"/>
    </person>
    <person id="95" depart="133.40" type="DEFAULT_PEDTYPE">
        <walk from="1144160275#1" to="23195798"/>
    </person>
    <person id="96" depart="134.00" type="DEFAULT_PEDTYPE">
        <walk from="997944679" to="322548792#1"/>
    </person>
    <person id="97" depart="135.60" type="DEFAULT_PEDTYPE">
        <walk from="184427426#0" to="28998662#3"/>
    </person>
    <person id="98" depart="136.00" type="DEFAULT_PEDTYPE">
        <walk from="184427434#0" to="23195800"/>
    </person>
    <person id="99" depart="137.60" type="DEFAULT_PEDTYPE">
        <walk from="28718922#1" to="28710621#0"/>
    </person>
    <person id="100" depart="139.60" type="DEFAULT_PEDTYPE">
        <walk from="123592772#2" to="539483270"/>
    </person>
    <person id="101" depart="140.60" type="DEFAULT_PEDTYPE">
        <walk from="28999595#1" to="-191987469#1"/>
    </person>
    <person id="102" depart="140.80" type="DEFAULT_PEDTYPE">
        <walk from="28710755#2" to="998769531"/>
    </person>
    <person id="103" depart="141.60" type="DEFAULT_PEDTYPE">
        <walk from="193099645#0" to="-23196319"/>
    </person>
    <person id="104" depart="143.40" type="DEFAULT_PEDTYPE">
        <walk from="29241566" to="429515619#1"/>
    </person>
    <person id="105" depart="146.00" type="DEFAULT_PEDTYPE">
        <walk from="-522833753" to="28709110"/>
    </person>
    <person id="106" depart="146.40" type="DEFAULT_PEDTYPE">
        <walk from="191871225#0" to="995665523#0"/>
    </person>
    <person id="107" depart="146.80" type="DEFAULT_PEDTYPE">
        <walk from="28710755#2" to="-522833746"/>
    </person>
    <person id="108" depart="148.40" type="DEFAULT_PEDTYPE">
        <walk from="28710621#0" to="998885380"/>
    </person>
    <person id="109" depart="148.80" type="DEFAULT_PEDTYPE">
        <walk from="23195499#2" to="545476129#5"/>
    </person>
    <person id="110" depart="149.40" type="DEFAULT_PEDTYPE">
        <walk from="184427434#0" to="-23195496"/>
    </person>
    <person id="111" depart="149.40" type="DEFAULT_PEDTYPE">
        <walk from="-191987466" to="995252087#1"/>
    </person>
    <person id="112" depart="150.60" type="DEFAULT_PEDTYPE">
        <walk from="-23195496" to="322548792#1"/>
    </person>
    <person id="113" depart="152.20" type="DEFAULT_PEDTYPE">
        <walk from="996364918" to="191871225#1"/>
    </person>
    <person id="114" depart="153.20" type="DEFAULT_PEDTYPE">
        <walk from="1132162842#0" to="-184427426#4"/>
    </person>
    <person id="115" depart="153.80" type="DEFAULT_PEDTYPE">
        <walk from="23195499#1" to="-191979123#0"/>
    </person>
    <person id="116" depart="154.20" type="DEFAULT_PEDTYPE">
        <walk from="461160629" to="655717643"/>
    </person>
    <person id="117" depart="154.40" type="DEFAULT_PEDTYPE">
        <walk from="996144772#1" to="23683441#1"/>
    </person>
    <person id="118" depart="154.80" type="DEFAULT_PEDTYPE">
        <walk from="539419138" to="998769538#1"/>
    </person>
    <person id="119" depart="156.40" type="DEFAULT_PEDTYPE">
        <walk from="998769540#1" to="997944687"/>
    </person>
    <person id="120" depart="157.40" type="DEFAULT_PEDTYPE">
        <walk from="29033731" to="429515619#0"/>
    </person>
    <person id="121" depart="160.80" type="DEFAULT_PEDTYPE">
        <walk from="655717643" to="28710621#1"/>
    </person>
    <person id="122" depart="165.80" type="DEFAULT_PEDTYPE">
        <walk from="545476129#5" to="655717643"/>
    </person>
    <person id="123" depart="166.20" type="DEFAULT_PEDTYPE">
        <walk from="484335723#1" to="1132162843#2"/>
    </person>
    <person id="124" depart="168.00" type="DEFAULT_PEDTYPE">
        <walk from="191987465#0" to="655717640#1"/>
    </person>
    <person id="125" depart="168.80" type="DEFAULT_PEDTYPE">
        <walk from="995252087#1" to="998769533"/>
    </person>
    <person id="126" depart="169.00" type="DEFAULT_PEDTYPE">
        <walk from="191979127#0" to="23195795"/>
    </person>
    <person id="127" depart="169.40" type="DEFAULT_PEDTYPE">
        <walk from="-23195751#2" to="1144160275#0"/>
    </person>
    <person id="128" depart="169.40" type="DEFAULT_PEDTYPE">
        <walk from="28709110" to="-23196319"/>
    </person>
    <person id="129" depart="171.40" type="DEFAULT_PEDTYPE">
        <walk from="1002422788#1" to="-191987466"/>
    </person>
    <person id="130" depart="175.20" type="DEFAULT_PEDTYPE">
        <walk from="193099645#0" to="28710621#0"/>
    </person>
    <person id="131" depart="177.60" type="DEFAULT_PEDTYPE">
        <walk from="-184427426#3" to="1002422788#1"/>
    </person>
    <person id="132" depart="177.60" type="DEFAULT_PEDTYPE">
        <walk from="1144160275#1" to="1132162843#1"/>
    </person>
    <person id="133" depart="177.80" type="DEFAULT_PEDTYPE">
        <walk from="-191959706#1" to="998769533"/>
    </person>
    <person id="134" depart="178.40" type="DEFAULT_PEDTYPE">
        <walk from="23195803#2" to="996144772#1"/>
    </person>
    <person id="135" depart="179.20" type="DEFAULT_PEDTYPE">
        <walk from="1132162843#1" to="539419146#1"/>
    </person>
    <person id="136" depart="180.00" type="DEFAULT_PEDTYPE">
        <walk from="461160629" to="23195751#1"/>
    </person>
    <person id="137" depart="181.40" type="DEFAULT_PEDTYPE">
        <walk from="29241566" to="28710621#0"/>
    </person>
    <person id="138" depart="183.00" type="DEFAULT_PEDTYPE">
        <walk from="-191987465#0" to="353382750#1"/>
    </person>
    <person id="139" depart="183.40" type="DEFAULT_PEDTYPE">
        <walk from="23195792#0" to="184427426#4"/>
    </person>
    <person id="140" depart="188.20" type="DEFAULT_PEDTYPE">
        <walk from="996022767" to="-185271779#4"/>
    </person>
    <person id="141" depart="188.20" type="DEFAULT_PEDTYPE">
        <walk from="28710621#3" to="23195803#2"/>
    </person>
    <person id="142" depart="190.20" type="DEFAULT_PEDTYPE">
        <walk from="23195328#2" to="29033731"/>
    </person>
    <person id="143" depart="192.60" type="DEFAULT_PEDTYPE">
        <walk from="545476129#5" to="28999595#1"/>
    </person>
    <person id="144" depart="194.80" type="DEFAULT_PEDTYPE">
        <walk from="28719125#0" to="-191979123#0"/>
    </person>
    <person id="145" depart="196.40" type="DEFAULT_PEDTYPE">
        <walk from="-28718922#1" to="998769533"/>
    </person>
    <person id="146" depart="197.20" type="DEFAULT_PEDTYPE">
        <walk from="23195799#0" to="-32062050#0"/>
    </person>
    <person id="147" depart="198.40" type="DEFAULT_PEDTYPE">
        <walk from="1144160277" to="23683441#1"/>
    </person>
    <person id="148" depart="200.20" type="DEFAULT_PEDTYPE">
        <walk from="996144772#1" to="461160629"/>
    </person>
    <person id="149" depart="201.40" type="DEFAULT_PEDTYPE">
        <walk from="522497449" to="28710751"/>
    </person>
    <person id="150" depart="202.00" type="DEFAULT_PEDTYPE">
        <walk from="193099645#0" to="23195754#4"/>
    </person>
    <person id="151" depart="204.80" type="DEFAULT_PEDTYPE">
        <walk from="-191979123#0" to="322548792#1"/>
    </person>
    <person id="152" depart="210.20" type="DEFAULT_PEDTYPE">
        <walk from="184427426#3" to="23195752#2"/>
    </person>
    <person id="153" depart="212.80" type="DEFAULT_PEDTYPE">
        <walk from="1132162844#0" to="1149634794#1"/>
    </person>
    <person id="154" depart="213.00" type="DEFAULT_PEDTYPE">
        <walk from="545476129#5" to="29033734#1"/>
    </person>
    <person id="155" depart="214.20" type="DEFAULT_PEDTYPE">
        <walk from="647789892" to="190606085"/>
    </person>
    <person id="156" depart="216.40" type="DEFAULT_PEDTYPE">
        <walk from="23195499#0" to="539483278"/>
    </person>
    <person id="157" depart="217.80" type="DEFAULT_PEDTYPE">
        <walk from="-23196319" to="23195501#1"/>
    </person>
    <person id="158" depart="218.00" type="DEFAULT_PEDTYPE">
        <walk from="23195734" to="28710410"/>
    </person>
    <person id="159" depart="218.60" type="DEFAULT_PEDTYPE">
        <walk from="1149942855" to="-28998663#0"/>
    </person>
    <person id="160" depart="222.40" type="DEFAULT_PEDTYPE">
        <walk from="545476127#1" to="995252087#1"/>
    </person>
    <person id="161" depart="225.20" type="DEFAULT_PEDTYPE">
        <walk from="23195794#0" to="584987256"/>
    </person>
    <person id="162" depart="225.40" type="DEFAULT_PEDTYPE">
        <walk from="-28719125#0" to="474164620#0"/>
    </person>
    <person id="163" depart="225.60" type="DEFAULT_PEDTYPE">
        <walk from="545476129#5" to="191959706#0"/>
    </person>
    <person id="164" depart="228.40" type="DEFAULT_PEDTYPE">
        <walk from="29033731" to="998769531"/>
    </person>
    <person id="165" depart="229.00" type="DEFAULT_PEDTYPE">
        <walk from="-23196319" to="-998769538#0"/>
    </person>
    <person id="166" depart="231.60" type="DEFAULT_PEDTYPE">
        <walk from="997944679" to="190606070"/>
    </person>
    <person id="167" depart="232.00" type="DEFAULT_PEDTYPE">
        <walk from="1002422788#0" to="123592772#2"/>
    </person>
    <person id="168" depart="232.40" type="DEFAULT_PEDTYPE">
        <walk from="-998769536#1" to="996022767"/>
    </person>
    <person id="169" depart="236.00" type="DEFAULT_PEDTYPE">
        <walk from="28999595#1" to="28999595#1"/>
    </person>
    <person id="170" depart="237.40" type="DEFAULT_PEDTYPE">
        <walk from="190606085" to="-23195799#0"/>
    </person>
    <person id="171" depart="240.60" type="DEFAULT_PEDTYPE">
        <walk from="996022767" to="545476129#4"/>
    </person>
    <person id="172" depart="241.20" type="DEFAULT_PEDTYPE">
        <walk from="184427434#0" to="29033802"/>
    </person>
    <person id="173" depart="242.20" type="DEFAULT_PEDTYPE">
        <walk from="1149942855" to="545476127#1"/>
    </person>
    <person id="174" depart="242.80" type="DEFAULT_PEDTYPE">
        <walk from="647789892" to="-191959714"/>
    </person>
    <person id="175" depart="243.40" type="DEFAULT_PEDTYPE">
        <walk from="996022769#1" to="23195754#1"/>
    </person>
    <person id="176" depart="243.60" type="DEFAULT_PEDTYPE">
        <walk from="-474164620#0" to="584987256"/>
    </person>
    <person id="177" depart="247.00" type="DEFAULT_PEDTYPE">
        <walk from="1001467661" to="23195749#1"/>
    </person>
    <person id="178" depart="249.40" type="DEFAULT_PEDTYPE">
        <walk from="123592772#1" to="23195734"/>
    </person>
    <person id="179" depart="252.20" type="DEFAULT_PEDTYPE">
        <walk from="193099645#1" to="-32062050#0"/>
    </person>
    <person id="180" depart="254.60" type="DEFAULT_PEDTYPE">
        <walk from="996022767" to="193099645#2"/>
    </person>
    <person id="181" depart="256.60" type="DEFAULT_PEDTYPE">
        <walk from="23195499#1" to="-23196319"/>
    </person>
    <person id="182" depart="261.80" type="DEFAULT_PEDTYPE">
        <walk from="23195499#0" to="1132162843#1"/>
    </person>
    <person id="183" depart="262.00" type="DEFAULT_PEDTYPE">
        <walk from="322548792#3" to="-397927055#0"/>
    </person>
    <person id="184" depart="263.60" type="DEFAULT_PEDTYPE">
        <walk from="28710621#0" to="661212190"/>
    </person>
    <person id="185" depart="265.00" type="DEFAULT_PEDTYPE">
        <walk from="-23195496" to="184427426#3"/>
    </person>
    <person id="186" depart="265.20" type="DEFAULT_PEDTYPE">
        <walk from="191979120" to="998798218"/>
    </person>
    <person id="187" depart="266.20" type="DEFAULT_PEDTYPE">
        <walk from="397927055#0" to="-28710790"/>
    </person>
    <person id="188" depart="266.80" type="DEFAULT_PEDTYPE">
        <walk from="192464423" to="28719125#0"/>
    </person>
    <person id="189" depart="272.40" type="DEFAULT_PEDTYPE">
        <walk from="522497449" to="655717643"/>
    </person>
    <person id="190" depart="272.80" type="DEFAULT_PEDTYPE">
        <walk from="184427426#0" to="-522833720#0"/>
    </person>
    <person id="191" depart="275.40" type="DEFAULT_PEDTYPE">
        <walk from="23196319" to="23195793"/>
    </person>
    <person id="192" depart="275.60" type="DEFAULT_PEDTYPE">
        <walk from="23195754#4" to="29033802"/>
    </person>
    <person id="193" depart="275.80" type="DEFAULT_PEDTYPE">
        <walk from="-32062050#0" to="1001467661"/>
    </person>
    <person id="194" depart="275.80" type="DEFAULT_PEDTYPE">
        <walk from="995252087#1" to="647789892"/>
    </person>
    <person id="195" depart="277.40" type="DEFAULT_PEDTYPE">
        <walk from="23195754#3" to="28710621#3"/>
    </person>
    <person id="196" depart="277.60" type="DEFAULT_PEDTYPE">
        <walk from="28710621#0" to="1001467661"/>
    </person>
    <person id="197" depart="278.00" type="DEFAULT_PEDTYPE">
        <walk from="23195755#0" to="539419138"/>
    </person>
    <person id="198" depart="279.20" type="DEFAULT_PEDTYPE">
        <walk from="29072594" to="-522833720#0"/>
    </person>
    <person id="199" depart="280.00" type="DEFAULT_PEDTYPE">
        <walk from="322548792#1" to="993984189"/>
    </person>
    <person id="200" depart="288.00" type="DEFAULT_PEDTYPE">
        <walk from="23195734" to="-185271779#2"/>
    </person>
    <person id="201" depart="290.80" type="DEFAULT_PEDTYPE">
        <walk from="23195792#0" to="545476129#5"/>
    </person>
    <person id="202" depart="292.00" type="DEFAULT_PEDTYPE">
        <walk from="28998662#3" to="32062050#1"/>
    </person>
    <person id="203" depart="292.20" type="DEFAULT_PEDTYPE">
        <walk from="190606079#0" to="191979127#0"/>
    </person>
    <person id="204" depart="299.20" type="DEFAULT_PEDTYPE">
        <walk from="322548792#1" to="353382752"/>
    </person>
    <person id="205" depart="299.80" type="DEFAULT_PEDTYPE">
        <walk from="191871225#1" to="23195792#0"/>
    </person>
    <person id="206" depart="305.60" type="DEFAULT_PEDTYPE">
        <walk from="28709110" to="23195795"/>
    </person>
    <person id="207" depart="306.20" type="DEFAULT_PEDTYPE">
        <walk from="996144770" to="-322548792#6"/>
    </person>
    <person id="208" depart="306.60" type="DEFAULT_PEDTYPE">
        <walk from="23195792#0" to="-522833753"/>
    </person>
    <person id="209" depart="309.80" type="DEFAULT_PEDTYPE">
        <walk from="322548792#1" to="1132162842#0"/>
    </person>
    <person id="210" depart="310.60" type="DEFAULT_PEDTYPE">
        <walk from="1132162844#0" to="23195794#0"/>
    </person>
    <person id="211" depart="312.40" type="DEFAULT_PEDTYPE">
        <walk from="28710621#0" to="191987465#0"/>
    </person>
    <person id="212" depart="313.80" type="DEFAULT_PEDTYPE">
        <walk from="-32062050#0" to="123592772#2"/>
    </person>
    <person id="213" depart="316.00" type="DEFAULT_PEDTYPE">
        <walk from="1149942855" to="539483270"/>
    </person>
    <person id="214" depart="317.00" type="DEFAULT_PEDTYPE">
        <walk from="23195499#2" to="997944679"/>
    </person>
    <person id="215" depart="317.80" type="DEFAULT_PEDTYPE">
        <walk from="647789892" to="996022767"/>
    </person>
    <person id="216" depart="320.40" type="DEFAULT_PEDTYPE">
        <walk from="1149942855" to="23195338#1"/>
    </person>
    <person id="217" depart="322.20" type="DEFAULT_PEDTYPE">
        <walk from="-322548792#1" to="23195338#1"/>
    </person>
    <person id="218" depart="323.40" type="DEFAULT_PEDTYPE">
        <walk from="23195338#1" to="995665523#0"/>
    </person>
    <person id="219" depart="327.80" type="DEFAULT_PEDTYPE">
        <walk from="28999595#1" to="23195338#1"/>
    </person>
    <person id="220" depart="328.60" type="DEFAULT_PEDTYPE">
        <walk from="-522833746" to="1144160277"/>
    </person>
    <person id="221" depart="329.60" type="DEFAULT_PEDTYPE">
        <walk from="23195793" to="539419138"/>
    </person>
    <person id="222" depart="332.20" type="DEFAULT_PEDTYPE">
        <walk from="1132162842#0" to="23195752#1"/>
    </person>
    <person id="223" depart="334.00" type="DEFAULT_PEDTYPE">
        <walk from="23195793" to="998769537"/>
    </person>
    <person id="224" depart="335.00" type="DEFAULT_PEDTYPE">
        <walk from="-322548792#0" to="322548792#4"/>
    </person>
    <person id="225" depart="338.20" type="DEFAULT_PEDTYPE">
        <walk from="28710410" to="29241566"/>
    </person>
    <person id="226" depart="341.40" type="DEFAULT_PEDTYPE">
        <walk from="191959704#1" to="23195499#1"/>
    </person>
    <person id="227" depart="342.80" type="DEFAULT_PEDTYPE">
        <walk from="29033734#2" to="-474164620#2"/>
    </person>
    <person id="228" depart="344.00" type="DEFAULT_PEDTYPE">
        <walk from="23195792#0" to="545476129#5"/>
    </person>
    <person id="229" depart="344.80" type="DEFAULT_PEDTYPE">
        <walk from="23195794#0" to="996364918"/>
    </person>
    <person id="230" depart="346.40" type="DEFAULT_PEDTYPE">
        <walk from="23195792#0" to="-23195751#2"/>
    </person>
    <person id="231" depart="347.60" type="DEFAULT_PEDTYPE">
        <walk from="193099645#0" to="23195800"/>
    </person>
    <person id="232" depart="348.60" type="DEFAULT_PEDTYPE">
        <walk from="192464423" to="539419146#1"/>
    </person>
    <person id="233" depart="349.00" type="DEFAULT_PEDTYPE">
        <walk from="1132162844#0" to="23195502#1"/>
    </person>
    <person id="234" depart="351.80" type="DEFAULT_PEDTYPE">
        <walk from="545476129#5" to="1149634794#1"/>
    </person>
    <person id="235" depart="354.80" type="DEFAULT_PEDTYPE">