<configuration>

<input>
	<net-file value="Area_pedonale.net.xml"/>
	<route-files value="Area_pedonale.rou.xml,persontrip.rou.xml"/>
</input>
<time>
	<begin value="0"/>
	<end value="50000"/>
</time>
</configuration>

