<?xml version="1.0" encoding="UTF-8"?>

<!-- generated on mar 25 ott 2022, 00:45:40 by Eclipse SUMO netedit Version 1.8.0
<configuration xmlns:xsi="http://www.w3.org/2001/XMLSchema-instance" xsi:noNamespaceSchemaLocation="http://sumo.dlr.de/xsd/netconvertConfiguration.xsd">

    <output>
        <output-file value="/home/toore/Scrivania/Tirocinio/MOdifica_area_pedonale/Area_pedonale.net.xml"/>
    </output>

    <processing>
        <offset.disable-normalization value="true"/>
    </processing>

    <junctions>
        <no-turnarounds value="true"/>
    </junctions>

    <netedit>
        <route-files value="/home/toore/Scrivania/Tirocinio/MOdifica_area_pedonale/Area_pedonale.rou.xml"/>
    </netedit>

    <report>
        <aggregate-warnings value="5"/>
    </report>

</configuration>
-->

<net version="1.6" junctionCornerDetail="5" limitTurnSpeed="5.50" xmlns:xsi="http://www.w3.org/2001/XMLSchema-instance" xsi:noNamespaceSchemaLocation="http://sumo.dlr.de/xsd/net_file.xsd">

    <location netOffset="0.00,0.00" convBoundary="-30.46,45.90,81.34,76.13" origBoundary="10000000000.00,10000000000.00,-10000000000.00,-10000000000.00" projParameter="!"/>

    <edge id="-gneE0" from="gneJ1" to="gneJ0" priority="-1">
        <lane id="-gneE0_0" index="0" allow="pedestrian" speed="13.89" length="106.89" shape="81.34,47.50 -25.55,47.50"/>
    </edge>
    <edge id="gneE0" from="gneJ0" to="gneJ1" priority="-1">
        <lane id="gneE0_0" index="0" allow="pedestrian" speed="13.89" length="106.89" shape="-25.55,44.30 81.34,44.30"/>
    </edge>
    <edge id="gneE1" from="gneJ3" to="gneJ2" priority="-1">
        <lane id="gneE1_0" index="0" allow="pedestrian" speed="13.89" length="23.47" shape="25.11,46.46 25.11,69.93"/>
    </edge>
    <edge id="gneE2" from="gneJ0" to="gneJ4" priority="-1">
        <lane id="gneE2_0" index="0" allow="pedestrian" speed="13.89" length="25.56" shape="-28.66,50.58 -28.86,76.14"/>
    </edge>
    <edge id="gneE3" from="gneJ2" to="gneJ5" priority="-1">
        <lane id="gneE3_0" index="0" allow="pedestrian" speed="13.89" length="40.70" shape="26.71,71.53 67.41,71.45"/>
    </edge>

    <junction id="gneJ0" type="dead_end" x="-30.22" y="45.90" incLanes="-gneE0_0" intLanes="" shape="-25.55,49.10 -25.55,42.70 -28.14,43.57 -29.05,44.66 -29.71,46.20 -30.11,48.16 -30.26,50.57 -27.06,50.60 -26.89,49.76 -26.68,49.47 -26.38,49.26 -26.01,49.14"/>
    <junction id="gneJ1" type="dead_end" x="81.34" y="45.90" incLanes="gneE0_0" intLanes="" shape="81.34,45.90 81.34,42.70 81.34,45.90"/>
    <junction id="gneJ2" type="dead_end" x="23.51" y="73.13" incLanes="gneE1_0" intLanes="" shape="26.71,73.13 26.71,69.93 23.51,69.93 23.86,71.71 24.31,72.33 24.93,72.78 25.73,73.04"/>
    <junction id="gneJ3" type="dead_end" x="23.51" y="46.46" incLanes="" intLanes="" shape="23.51,46.46 26.71,46.46"/>
    <junction id="gneJ4" type="dead_end" x="-30.46" y="76.13" incLanes="gneE2_0" intLanes="" shape="-27.26,76.15 -30.46,76.13"/>
    <junction id="gneJ5" type="dead_end" x="67.42" y="73.05" incLanes="gneE3_0" intLanes="" shape="67.41,69.85 67.42,73.05"/>

</net>
