<?xml version="1.0" encoding="UTF-8"?>

<!-- generated on mar 25 ott 2022, 00:47:36 by Eclipse SUMO netedit Version 1.8.0
<configuration xmlns:xsi="http://www.w3.org/2001/XMLSchema-instance" xsi:noNamespaceSchemaLocation="http://sumo.dlr.de/xsd/netconvertConfiguration.xsd">

    <output>
        <output-file value="/home/toore/Scrivania/Tirocinio/MOdifica_area_pedonale/Area_pedonale.net.xml"/>
    </output>

    <processing>
        <offset.disable-normalization value="true"/>
    </processing>

    <junctions>
        <no-turnarounds value="true"/>
    </junctions>

    <netedit>
        <route-files value="/home/toore/Scrivania/Tirocinio/MOdifica_area_pedonale/Area_pedonale.rou.xml"/>
    </netedit>

    <report>
        <aggregate-warnings value="5"/>
    </report>

</configuration>
-->

<routes xmlns:xsi="http://www.w3.org/2001/XMLSchema-instance" xsi:noNamespaceSchemaLocation="http://sumo.dlr.de/xsd/routes_file.xsd">
    <route edges="-gneE0 gneE2" color="yellow" id="route_0"/>
    <route edges="gneE1 gneE3" color="yellow" id="route_1"/>
    <person id="person_0" depart="0.00">
        <walk from="gnej1" to="gnej3"/>
        <walk from="gnej3" to="gnej5"/>
    </person>
    <person id="person_1" depart="0.00"/>
    <person id="person_2" depart="0.00">
        <walk route="route_0"/>
    </person>
    <person id="person_3" depart="0.00">
        <walk from="-gneE0" to="gneE0"/>
    </person>
</routes>
