<?xml version="1.0" encoding="UTF-8"?>

<!-- generated on 2022-12-05 17:35:59.061773 by randomTrips.py v1_15_0+0682-ef022823415
<configuration>
    <end value="1000"/>
    <length value="True"/>
    <max-distance value="800.0"/>
    <net-file value="/home/toore/Tirocinio_SUMO/Scenario/MOdifica_area_pedonale/Area_pedonale.net.xml"/>
    <pedestrians value="True"/>
    <period value="1.4"/>
    <random value="True"/>
    <random-depart value="True"/>
    <route-file value="peds.rou.xml"/>
    <seed value="100000"/>
    <trip-attributes value="type=&quot;DEFAULT_PEDTYPE&quot;"/>
</configuration>
-->

<!-- generated on Mon Dec  5 17:35:59 2022 by Eclipse SUMO duarouter Version 1.8.0
<configuration xmlns:xsi="http://www.w3.org/2001/XMLSchema-instance" xsi:noNamespaceSchemaLocation="http://sumo.dlr.de/xsd/duarouterConfiguration.xsd">

    <input>
        <net-file value="/home/toore/Tirocinio_SUMO/Scenario/MOdifica_area_pedonale/Area_pedonale.net.xml"/>
        <route-files value="trips.trips.xml"/>
    </input>

    <output>
        <output-file value="peds.rou.xml"/>
        <alternatives-output value="NUL"/>
    </output>

    <time>
        <begin value="0"/>
        <end value="1000"/>
    </time>

    <report>
        <no-warnings value="true"/>
        <ignore-errors value="true"/>
        <no-step-log value="true"/>
    </report>

</configuration>
-->

<routes xmlns:xsi="http://www.w3.org/2001/XMLSchema-instance" xsi:noNamespaceSchemaLocation="http://sumo.dlr.de/xsd/routes_file.xsd">
    <person id="0" type="DEFAULT_PEDTYPE" depart="1.40">
        <walk edges="gneE3 gneE1"/>
    </person>
    <person id="1" type="DEFAULT_PEDTYPE" depart="2.20">
        <walk edges="-gneE0 gneE0"/>
    </person>
    <person id="2" type="DEFAULT_PEDTYPE" depart="2.20">
        <walk edges="-gneE0 gneE0"/>
    </person>
    <person id="3" type="DEFAULT_PEDTYPE" depart="4.00">
        <walk edges="-gneE0 gneE0"/>
    </person>
    <person id="4" type="DEFAULT_PEDTYPE" depart="5.00">
        <walk edges="-gneE0"/>
    </person>
    <person id="5" type="DEFAULT_PEDTYPE" depart="6.00">
        <walk edges="-gneE0"/>
    </person>
    <person id="8" type="DEFAULT_PEDTYPE" depart="8.80">
        <walk edges="-gneE0"/>
    </person>
    <person id="9" type="DEFAULT_PEDTYPE" depart="12.20">
        <walk edges="-gneE0 gneE0"/>
    </person>
    <person id="10" type="DEFAULT_PEDTYPE" depart="12.40">
        <walk edges="gneE3 gneE1"/>
    </person>
    <person id="11" type="DEFAULT_PEDTYPE" depart="14.00">
        <walk edges="-gneE0 gneE0"/>
    </person>
    <person id="12" type="DEFAULT_PEDTYPE" depart="15.40">
        <walk edges="-gneE0 gneE0"/>
    </person>
    <person id="13" type="DEFAULT_PEDTYPE" depart="15.60">
        <walk edges="gneE0"/>
    </person>
    <person id="15" type="DEFAULT_PEDTYPE" depart="21.20">
        <walk edges="-gneE0 gneE0"/>
    </person>
    <person id="16" type="DEFAULT_PEDTYPE" depart="21.40">
        <walk edges="gneE2"/>
    </person>
    <person id="17" type="DEFAULT_PEDTYPE" depart="23.20">
        <walk edges="gneE0 -gneE0"/>
    </person>
    <person id="18" type="DEFAULT_PEDTYPE" depart="23.40">
        <walk edges="gneE0 -gneE0"/>
    </person>
    <person id="19" type="DEFAULT_PEDTYPE" depart="23.80">
        <walk edges="-gneE0 gneE2"/>
    </person>
    <person id="20" type="DEFAULT_PEDTYPE" depart="24.60">
        <walk edges="gneE0 gneE2"/>
    </person>
    <person id="21" type="DEFAULT_PEDTYPE" depart="25.80">
        <walk edges="gneE0 -gneE0"/>
    </person>
    <person id="23" type="DEFAULT_PEDTYPE" depart="27.20">
        <walk edges="gneE0"/>
    </person>
    <person id="25" type="DEFAULT_PEDTYPE" depart="34.80">
        <walk edges="gneE2 gneE0"/>
    </person>
    <person id="28" type="DEFAULT_PEDTYPE" depart="40.00">
        <walk edges="-gneE0"/>
    </person>
    <person id="29" type="DEFAULT_PEDTYPE" depart="41.80">
        <walk edges="gneE2 gneE0"/>
    </person>
    <person id="30" type="DEFAULT_PEDTYPE" depart="42.40">
        <walk edges="gneE0 -gneE0"/>
    </person>
    <person id="32" type="DEFAULT_PEDTYPE" depart="44.00">
        <walk edges="gneE0 -gneE0"/>
    </person>
    <person id="35" type="DEFAULT_PEDTYPE" depart="52.80">
        <walk edges="gneE0 -gneE0"/>
    </person>
    <person id="36" type="DEFAULT_PEDTYPE" depart="53.00">
        <walk edges="gneE2 gneE0"/>
    </person>
    <person id="37" type="DEFAULT_PEDTYPE" depart="54.20">
        <walk edges="-gneE0 gneE0"/>
    </person>
    <person id="38" type="DEFAULT_PEDTYPE" depart="56.00">
        <walk edges="-gneE0 gneE0"/>
    </person>
    <person id="39" type="DEFAULT_PEDTYPE" depart="56.20">
        <walk edges="gneE2 gneE0"/>
    </person>
    <person id="40" type="DEFAULT_PEDTYPE" depart="57.60">
        <walk edges="-gneE0"/>
    </person>
    <person id="41" type="DEFAULT_PEDTYPE" depart="58.40">
        <walk edges="-gneE0 gneE0"/>
    </person>
    <person id="45" type="DEFAULT_PEDTYPE" depart="65.60">
        <walk edges="gneE0 -gneE0"/>
    </person>
    <person id="46" type="DEFAULT_PEDTYPE" depart="66.80">
        <walk edges="-gneE0 gneE0"/>
    </person>
    <person id="47" type="DEFAULT_PEDTYPE" depart="72.20">
        <walk edges="-gneE0 gneE0"/>
    </person>
    <person id="49" type="DEFAULT_PEDTYPE" depart="73.20">
        <walk edges="gneE0"/>
    </person>
    <person id="50" type="DEFAULT_PEDTYPE" depart="73.80">
        <walk edges="gneE0"/>
    </person>
    <person id="51" type="DEFAULT_PEDTYPE" depart="75.40">
        <walk edges="gneE0"/>
    </person>
    <person id="52" type="DEFAULT_PEDTYPE" depart="76.40">
        <walk edges="-gneE0 gneE0"/>
    </person>
    <person id="59" type="DEFAULT_PEDTYPE" depart="81.20">
        <walk edges="gneE0 -gneE0"/>
    </person>
    <person id="61" type="DEFAULT_PEDTYPE" depart="85.20">
        <walk edges="gneE2 gneE0"/>
    </person>
    <person id="62" type="DEFAULT_PEDTYPE" depart="85.60">
        <walk edges="-gneE0"/>
    </person>
    <person id="63" type="DEFAULT_PEDTYPE" depart="90.40">
        <walk edges="gneE1 gneE3"/>
    </person>
    <person id="66" type="DEFAULT_PEDTYPE" depart="93.40">
        <walk edges="gneE0 gneE2"/>
    </person>
    <person id="70" type="DEFAULT_PEDTYPE" depart="104.20">
        <walk edges="gneE0"/>
    </person>
    <person id="72" type="DEFAULT_PEDTYPE" depart="104.80">
        <walk edges="-gneE0 gneE0"/>
    </person>
    <person id="73" type="DEFAULT_PEDTYPE" depart="105.40">
        <walk edges="gneE0 gneE2"/>
    </person>
    <person id="75" type="DEFAULT_PEDTYPE" depart="108.20">
        <walk edges="gneE0 gneE2"/>
    </person>
    <person id="76" type="DEFAULT_PEDTYPE" depart="109.00">
        <walk edges="-gneE0 gneE0"/>
    </person>
    <person id="81" type="DEFAULT_PEDTYPE" depart="118.00">
        <walk edges="-gneE0"/>
    </person>
    <person id="83" type="DEFAULT_PEDTYPE" depart="120.00">
        <walk edges="-gneE0"/>
    </person>
    <person id="84" type="DEFAULT_PEDTYPE" depart="120.60">
        <walk edges="-gneE0"/>
    </person>
    <person id="85" type="DEFAULT_PEDTYPE" depart="121.00">
        <walk edges="-gneE0 gneE0"/>
    </person>
    <person id="86" type="DEFAULT_PEDTYPE" depart="121.20">
        <walk edges="gneE1"/>
    </person>
    <person id="89" type="DEFAULT_PEDTYPE" depart="124.60">
        <walk edges="-gneE0"/>
    </person>
    <person id="90" type="DEFAULT_PEDTYPE" depart="125.00">
        <walk edges="-gneE0 gneE2"/>
    </person>
    <person id="91" type="DEFAULT_PEDTYPE" depart="125.20">
        <walk edges="gneE0 -gneE0"/>
    </person>
    <person id="92" type="DEFAULT_PEDTYPE" depart="126.20">
        <walk edges="-gneE0 gneE0"/>
    </person>
    <person id="94" type="DEFAULT_PEDTYPE" depart="127.60">
        <walk edges="gneE2 gneE0"/>
    </person>
    <person id="95" type="DEFAULT_PEDTYPE" depart="129.20">
        <walk edges="gneE0 -gneE0"/>
    </person>
    <person id="97" type="DEFAULT_PEDTYPE" depart="131.40">
        <walk edges="-gneE0 gneE0"/>
    </person>
    <person id="98" type="DEFAULT_PEDTYPE" depart="136.80">
        <walk edges="-gneE0 gneE2"/>
    </person>
    <person id="101" type="DEFAULT_PEDTYPE" depart="145.00">
        <walk edges="gneE0 -gneE0"/>
    </person>
    <person id="102" type="DEFAULT_PEDTYPE" depart="145.60">
        <walk edges="-gneE0"/>
    </person>
    <person id="103" type="DEFAULT_PEDTYPE" depart="149.20">
        <walk edges="gneE1"/>
    </person>
    <person id="104" type="DEFAULT_PEDTYPE" depart="150.60">
        <walk edges="gneE0"/>
    </person>
    <person id="107" type="DEFAULT_PEDTYPE" depart="153.40">
        <walk edges="-gneE0"/>
    </person>
    <person id="108" type="DEFAULT_PEDTYPE" depart="154.80">
        <walk edges="-gneE0 gneE0"/>
    </person>
    <person id="109" type="DEFAULT_PEDTYPE" depart="159.60">
        <walk edges="-gneE0"/>
    </person>
    <person id="111" type="DEFAULT_PEDTYPE" depart="164.00">
        <walk edges="gneE0 -gneE0"/>
    </person>
    <person id="112" type="DEFAULT_PEDTYPE" depart="165.00">
        <walk edges="gneE3"/>
    </person>
    <person id="113" type="DEFAULT_PEDTYPE" depart="165.00">
        <walk edges="gneE0 -gneE0"/>
    </person>
    <person id="114" type="DEFAULT_PEDTYPE" depart="166.40">
        <walk edges="gneE0 gneE2"/>
    </person>
    <person id="115" type="DEFAULT_PEDTYPE" depart="167.80">
        <walk edges="gneE0 -gneE0"/>
    </person>
    <person id="117" type="DEFAULT_PEDTYPE" depart="169.20">
        <walk edges="-gneE0 gneE0"/>
    </person>
    <person id="118" type="DEFAULT_PEDTYPE" depart="170.20">
        <walk edges="gneE0"/>
    </person>
    <person id="119" type="DEFAULT_PEDTYPE" depart="175.00">
        <walk edges="gneE1 gneE3"/>
    </person>
    <person id="122" type="DEFAULT_PEDTYPE" depart="176.40">
        <walk edges="-gneE0 gneE2"/>
    </person>
    <person id="124" type="DEFAULT_PEDTYPE" depart="179.60">
        <walk edges="-gneE0"/>
    </person>
    <person id="125" type="DEFAULT_PEDTYPE" depart="181.20">
        <walk edges="gneE3"/>
    </person>
    <person id="127" type="DEFAULT_PEDTYPE" depart="183.20">
        <walk edges="gneE0 -gneE0"/>
    </person>
    <person id="128" type="DEFAULT_PEDTYPE" depart="185.40">
        <walk edges="-gneE0"/>
    </person>
    <person id="129" type="DEFAULT_PEDTYPE" depart="186.00">
        <walk edges="gneE0 -gneE0"/>
    </person>
    <person id="130" type="DEFAULT_PEDTYPE" depart="186.40">
        <walk edges="gneE0 -gneE0"/>
    </person>
    <person id="131" type="DEFAULT_PEDTYPE" depart="186.60">
        <walk edges="gneE0"/>
    </person>
    <person id="132" type="DEFAULT_PEDTYPE" depart="187.20">
        <walk edges="gneE3 gneE1"/>
    </person>
    <person id="133" type="DEFAULT_PEDTYPE" depart="189.00">
        <walk edges="gneE2 -gneE0"/>
    </person>
    <person id="135" type="DEFAULT_PEDTYPE" depart="189.60">
        <walk edges="-gneE0"/>
    </person>
    <person id="137" type="DEFAULT_PEDTYPE" depart="199.20">
        <walk edges="-gneE0 gneE2"/>
    </person>
    <person id="138" type="DEFAULT_PEDTYPE" depart="201.20">
        <walk edges="-gneE0"/>
    </person>
    <person id="140" type="DEFAULT_PEDTYPE" depart="202.20">
        <walk edges="gneE0"/>
    </person>
    <person id="142" type="DEFAULT_PEDTYPE" depart="202.80">
        <walk edges="-gneE0 gneE0"/>
    </person>
    <person id="143" type="DEFAULT_PEDTYPE" depart="203.60">
        <walk edges="-gneE0"/>
    </person>
    <person id="144" type="DEFAULT_PEDTYPE" depart="206.00">
        <walk edges="gneE0"/>
    </person>
    <person id="145" type="DEFAULT_PEDTYPE" depart="206.00">
        <walk edges="gneE0 -gneE0"/>
    </person>
    <person id="146" type="DEFAULT_PEDTYPE" depart="207.80">
        <walk edges="-gneE0 gneE0"/>
    </person>
    <person id="147" type="DEFAULT_PEDTYPE" depart="210.40">
        <walk edges="-gneE0 gneE0"/>
    </person>
    <person id="148" type="DEFAULT_PEDTYPE" depart="211.20">
        <walk edges="gneE0"/>
    </person>
    <person id="149" type="DEFAULT_PEDTYPE" depart="211.60">
        <walk edges="gneE3"/>
    </person>
    <person id="150" type="DEFAULT_PEDTYPE" depart="212.20">
        <walk edges="gneE0"/>
    </person>
    <person id="151" type="DEFAULT_PEDTYPE" depart="212.80">
        <walk edges="gneE0"/>
    </person>
    <person id="156" type="DEFAULT_PEDTYPE" depart="223.80">
        <walk edges="gneE2 -gneE0"/>
    </person>
    <person id="157" type="DEFAULT_PEDTYPE" depart="226.00">
        <walk edges="gneE2 -gneE0"/>
    </person>
    <person id="159" type="DEFAULT_PEDTYPE" depart="229.00">
        <walk edges="gneE0 -gneE0"/>
    </person>
    <person id="160" type="DEFAULT_PEDTYPE" depart="232.20">
        <walk edges="gneE0"/>
    </person>
    <person id="161" type="DEFAULT_PEDTYPE" depart="233.00">
        <walk edges="gneE2 gneE0"/>
    </person>
    <person id="164" type="DEFAULT_PEDTYPE" depart="236.80">
        <walk edges="-gneE0 gneE0"/>
    </person>
    <person id="166" type="DEFAULT_PEDTYPE" depart="241.60">
        <walk edges="gneE0 -gneE0"/>
    </person>
    <person id="167" type="DEFAULT_PEDTYPE" depart="241.80">
        <walk edges="gneE0 -gneE0"/>
    </person>
    <person id="168" type="DEFAULT_PEDTYPE" depart="243.60">
        <walk edges="gneE2"/>
    </person>
    <person id="169" type="DEFAULT_PEDTYPE" depart="244.60">
        <walk edges="gneE2 gneE0"/>
    </person>
    <person id="174" type="DEFAULT_PEDTYPE" depart="251.40">
        <walk edges="-gneE0 gneE2"/>
    </person>
    <person id="175" type="DEFAULT_PEDTYPE" depart="252.60">
        <walk edges="-gneE0"/>
    </person>
    <person id="177" type="DEFAULT_PEDTYPE" depart="255.20">
        <walk edges="gneE2 -gneE0"/>
    </person>
    <person id="178" type="DEFAULT_PEDTYPE" depart="255.40">
        <walk edges="-gneE0 gneE0"/>
    </person>
    <person id="179" type="DEFAULT_PEDTYPE" depart="257.60">
        <walk edges="-gneE0"/>
    </person>
    <person id="180" type="DEFAULT_PEDTYPE" depart="257.60">
        <walk edges="gneE0 gneE2"/>
    </person>
    <person id="181" type="DEFAULT_PEDTYPE" depart="260.20">
        <walk edges="-gneE0"/>
    </person>
    <person id="182" type="DEFAULT_PEDTYPE" depart="261.00">
        <walk edges="-gneE0 gneE2"/>
    </person>
    <person id="185" type="DEFAULT_PEDTYPE" depart="262.00">
        <walk edges="-gneE0"/>
    </person>
    <person id="187" type="DEFAULT_PEDTYPE" depart="264.60">
        <walk edges="gneE0"/>
    </person>
    <person id="188" type="DEFAULT_PEDTYPE" depart="264.80">
        <walk edges="gneE0 -gneE0"/>
    </person>
    <person id="190" type="DEFAULT_PEDTYPE" depart="267.00">
        <walk edges="gneE2 gneE0"/>
    </person>
    <person id="193" type="DEFAULT_PEDTYPE" depart="276.60">
        <walk edges="-gneE0 gneE0"/>
    </person>
    <person id="194" type="DEFAULT_PEDTYPE" depart="280.00">
        <walk edges="gneE0 -gneE0"/>
    </person>
    <person id="197" type="DEFAULT_PEDTYPE" depart="286.40">
        <walk edges="gneE0"/>
    </person>
    <person id="198" type="DEFAULT_PEDTYPE" depart="290.00">
        <walk edges="-gneE0 gneE0"/>
    </person>
    <person id="200" type="DEFAULT_PEDTYPE" depart="292.20">
        <walk edges="-gneE0"/>
    </person>
    <person id="201" type="DEFAULT_PEDTYPE" depart="292.60">
        <walk edges="-gneE0"/>
    </person>
    <person id="203" type="DEFAULT_PEDTYPE" depart="296.80">
        <walk edges="gneE3 gneE1"/>
    </person>
    <person id="204" type="DEFAULT_PEDTYPE" depart="298.80">
        <walk edges="-gneE0 gneE0"/>
    </person>
    <person id="207" type="DEFAULT_PEDTYPE" depart="301.00">
        <walk edges="gneE0"/>
    </person>
    <person id="208" type="DEFAULT_PEDTYPE" depart="302.20">
        <walk edges="-gneE0"/>
    </person>
    <person id="209" type="DEFAULT_PEDTYPE" depart="304.80">
        <walk edges="gneE0 gneE2"/>
    </person>
    <person id="210" type="DEFAULT_PEDTYPE" depart="305.40">
        <walk edges="gneE3"/>
    </person>
    <person id="211" type="DEFAULT_PEDTYPE" depart="306.00">
        <walk edges="gneE0 -gneE0"/>
    </person>
    <person id="214" type="DEFAULT_PEDTYPE" depart="307.80">
        <walk edges="gneE0 -gneE0"/>
    </person>
    <person id="215" type="DEFAULT_PEDTYPE" depart="311.20">
        <walk edges="gneE0 -gneE0"/>
    </person>
    <person id="216" type="DEFAULT_PEDTYPE" depart="311.80">
        <walk edges="gneE0"/>
    </person>
    <person id="217" type="DEFAULT_PEDTYPE" depart="312.00">
        <walk edges="-gneE0"/>
    </person>
    <person id="220" type="DEFAULT_PEDTYPE" depart="313.80">
        <walk edges="gneE2 gneE0"/>
    </person>
    <person id="223" type="DEFAULT_PEDTYPE" depart="318.80">
        <walk edges="-gneE0 gneE2"/>
    </person>
    <person id="224" type="DEFAULT_PEDTYPE" depart="318.80">
        <walk edges="-gneE0"/>
    </person>
    <person id="225" type="DEFAULT_PEDTYPE" depart="320.40">
        <walk edges="-gneE0"/>
    </person>
    <person id="226" type="DEFAULT_PEDTYPE" depart="320.60">
        <walk edges="gneE0 -gneE0"/>
    </person>
    <person id="227" type="DEFAULT_PEDTYPE" depart="321.60">
        <walk edges="-gneE0"/>
    </person>
    <person id="228" type="DEFAULT_PEDTYPE" depart="322.00">
        <walk edges="gneE2 gneE0"/>
    </person>
    <person id="230" type="DEFAULT_PEDTYPE" depart="322.20">
        <walk edges="gneE0 -gneE0"/>
    </person>
    <person id="233" type="DEFAULT_PEDTYPE" depart="327.20">
        <walk edges="-gneE0 gneE2"/>
    </person>
    <person id="234" type="DEFAULT_PEDTYPE" depart="328.60">
        <walk edges="gneE2 gneE0"/>
    </person>
    <person id="235" type="DEFAULT_PEDTYPE" depart="330.20">
        <walk edges="gneE0"/>
    </person>
    <person id="236" type="DEFAULT_PEDTYPE" depart="331.40">
        <walk edges="gneE0 -gneE0"/>
    </person>
    <person id="240" type="DEFAULT_PEDTYPE" depart="338.60">
        <walk edges="gneE0 -gneE0"/>
    </person>
    <person id="242" type="DEFAULT_PEDTYPE" depart="340.20">
        <walk edges="-gneE0 gneE2"/>
    </person>
    <person id="243" type="DEFAULT_PEDTYPE" depart="341.00">
        <walk edges="-gneE0"/>
    </person>
    <person id="244" type="DEFAULT_PEDTYPE" depart="341.40">
        <walk edges="-gneE0 gneE0"/>
    </person>
    <person id="246" type="DEFAULT_PEDTYPE" depart="344.60">
        <walk edges="gneE2 gneE0"/>
    </person>
    <person id="247" type="DEFAULT_PEDTYPE" depart="344.80">
        <walk edges="-gneE0"/>
    </person>
    <person id="249" type="DEFAULT_PEDTYPE" depart="345.80">
        <walk edges="-gneE0"/>
    </person>
    <person id="252" type="DEFAULT_PEDTYPE" depart="348.60">
        <walk edges="gneE2 -gneE0"/>
    </person>
    <person id="253" type="DEFAULT_PEDTYPE" depart="351.00">
        <walk edges="gneE0"/>
    </person>
    <person id="254" type="DEFAULT_PEDTYPE" depart="358.00">
        <walk edges="-gneE0"/>
    </person>
    <person id="256" type="DEFAULT_PEDTYPE" depart="361.80">
        <walk edges="gneE3"/>
    </person>
    <person id="258" type="DEFAULT_PEDTYPE" depart="362.80">
        <walk edges="gneE2 -gneE0"/>
    </person>
    <person id="259" type="DEFAULT_PEDTYPE" depart="363.60">
        <walk edges="gneE0 -gneE0"/>
    </person>
    <person id="260" type="DEFAULT_PEDTYPE" depart="368.00">
        <walk edges="gneE0 -gneE0"/>
    </person>
    <person id="261" type="DEFAULT_PEDTYPE" depart="371.40">
        <walk edges="gneE0 -gneE0"/>
    </person>
    <person id="262" type="DEFAULT_PEDTYPE" depart="374.00">
        <walk edges="-gneE0 gneE0"/>
    </person>
    <person id="263" type="DEFAULT_PEDTYPE" depart="374.60">
        <walk edges="-gneE0 gneE0"/>
    </person>
    <person id="264" type="DEFAULT_PEDTYPE" depart="376.40">
        <walk edges="-gneE0 gneE2"/>
    </person>
    <person id="266" type="DEFAULT_PEDTYPE" depart="385.40">
        <walk edges="-gneE0"/>
    </person>
    <person id="267" type="DEFAULT_PEDTYPE" depart="387.00">
        <walk edges="gneE0"/>
    </person>
    <person id="268" type="DEFAULT_PEDTYPE" depart="387.00">
        <walk edges="-gneE0"/>
    </person>
    <person id="269" type="DEFAULT_PEDTYPE" depart="387.60">
        <walk edges="gneE0"/>
    </person>
    <person id="270" type="DEFAULT_PEDTYPE" depart="389.80">
        <walk edges="gneE2 -gneE0"/>
    </person>
    <person id="273" type="DEFAULT_PEDTYPE" depart="398.60">
        <walk edges="gneE0 -gneE0"/>
    </person>
    <person id="274" type="DEFAULT_PEDTYPE" depart="398.80">
        <walk edges="-gneE0 gneE2"/>
    </person>
    <person id="275" type="DEFAULT_PEDTYPE" depart="398.80">
        <walk edges="-gneE0 gneE0"/>
    </person>
    <person id="276" type="DEFAULT_PEDTYPE" depart="401.40">
        <walk edges="gneE0 -gneE0"/>
    </person>
    <person id="278" type="DEFAULT_PEDTYPE" depart="403.40">
        <walk edges="gneE0"/>
    </person>
    <person id="280" type="DEFAULT_PEDTYPE" depart="404.80">
        <walk edges="gneE0"/>
    </person>
    <person id="282" type="DEFAULT_PEDTYPE" depart="411.00">
        <walk edges="-gneE0 gneE0"/>
    </person>
    <person id="283" type="DEFAULT_PEDTYPE" depart="413.40">
        <walk edges="-gneE0"/>
    </person>
    <person id="285" type="DEFAULT_PEDTYPE" depart="414.40">
        <walk edges="-gneE0 gneE0"/>
    </person>
    <person id="286" type="DEFAULT_PEDTYPE" depart="415.20">
        <walk edges="gneE0"/>
    </person>
    <person id="287" type="DEFAULT_PEDTYPE" depart="416.20">
        <walk edges="gneE0"/>
    </person>
    <person id="289" type="DEFAULT_PEDTYPE" depart="416.20">
        <walk edges="gneE0 -gneE0"/>
    </person>
    <person id="290" type="DEFAULT_PEDTYPE" depart="416.60">
        <walk edges="-gneE0 gneE2"/>
    </person>
    <person id="292" type="DEFAULT_PEDTYPE" depart="418.00">
        <walk edges="gneE0"/>
    </person>
    <person id="294" type="DEFAULT_PEDTYPE" depart="420.00">
        <walk edges="-gneE0"/>
    </person>
    <person id="295" type="DEFAULT_PEDTYPE" depart="421.20">
        <walk edges="gneE2 -gneE0"/>
    </person>
    <person id="296" type="DEFAULT_PEDTYPE" depart="422.80">
        <walk edges="-gneE0 gneE0"/>
    </person>
    <person id="297" type="DEFAULT_PEDTYPE" depart="424.20">
        <walk edges="-gneE0"/>
    </person>
    <person id="298" type="DEFAULT_PEDTYPE" depart="425.00">
        <walk edges="-gneE0 gneE0"/>
    </person>
    <person id="299" type="DEFAULT_PEDTYPE" depart="425.40">
        <walk edges="-gneE0 gneE2"/>
    </person>
    <person id="300" type="DEFAULT_PEDTYPE" depart="425.60">
        <walk edges="-gneE0"/>
    </person>
    <person id="303" type="DEFAULT_PEDTYPE" depart="430.40">
        <walk edges="-gneE0 gneE0"/>
    </person>
    <person id="305" type="DEFAULT_PEDTYPE" depart="431.80">
        <walk edges="gneE0 -gneE0"/>
    </person>
    <person id="307" type="DEFAULT_PEDTYPE" depart="443.20">
        <walk edges="gneE0"/>
    </person>
    <person id="308" type="DEFAULT_PEDTYPE" depart="445.80">
        <walk edges="gneE2 -gneE0"/>
    </person>
    <person id="309" type="DEFAULT_PEDTYPE" depart="446.40">
        <walk edges="gneE0 -gneE0"/>
    </person>
    <person id="312" type="DEFAULT_PEDTYPE" depart="448.40">
        <walk edges="gneE0 -gneE0"/>
    </person>
    <person id="314" type="DEFAULT_PEDTYPE" depart="452.20">
        <walk edges="gneE0 gneE2"/>
    </person>
    <person id="315" type="DEFAULT_PEDTYPE" depart="453.40">
        <walk edges="-gneE0 gneE0"/>
    </person>
    <person id="320" type="DEFAULT_PEDTYPE" depart="465.20">
        <walk edges="gneE0 -gneE0"/>
    </person>
    <person id="322" type="DEFAULT_PEDTYPE" depart="467.40">
        <walk edges="-gneE0 gneE2"/>
    </person>
    <person id="323" type="DEFAULT_PEDTYPE" depart="467.60">
        <walk edges="gneE1"/>
    </person>
    <person id="324" type="DEFAULT_PEDTYPE" depart="468.80">
        <walk edges="gneE3"/>
    </person>
    <person id="325" type="DEFAULT_PEDTYPE" depart="469.60">
        <walk edges="gneE0 -gneE0"/>
    </person>
    <person id="329" type="DEFAULT_PEDTYPE" depart="473.20">
        <walk edges="-gneE0 gneE0"/>
    </person>
    <person id="330" type="DEFAULT_PEDTYPE" depart="473.60">
        <walk edges="gneE0 -gneE0"/>
    </person>
    <person id="331" type="DEFAULT_PEDTYPE" depart="475.40">
        <walk edges="gneE0 gneE2"/>
    </person>
    <person id="333" type="DEFAULT_PEDTYPE" depart="480.40">
        <walk edges="gneE0"/>
    </person>
    <person id="334" type="DEFAULT_PEDTYPE" depart="481.60">
        <walk edges="-gneE0 gneE0"/>
    </person>
    <person id="337" type="DEFAULT_PEDTYPE" depart="487.20">
        <walk edges="gneE0 -gneE0"/>
    </person>
    <person id="338" type="DEFAULT_PEDTYPE" depart="487.80">
        <walk edges="-gneE0 gneE0"/>
    </person>
    <person id="339" type="DEFAULT_PEDTYPE" depart="489.80">
        <walk edges="-gneE0 gneE0"/>
    </person>
    <person id="340" type="DEFAULT_PEDTYPE" depart="493.80">
        <walk edges="gneE0"/>
    </person>
    <person id="342" type="DEFAULT_PEDTYPE" depart="495.40">
        <walk edges="-gneE0"/>
    </person>
    <person id="343" type="DEFAULT_PEDTYPE" depart="500.20">
        <walk edges="gneE2"/>
    </person>
    <person id="344" type="DEFAULT_PEDTYPE" depart="501.00">
        <walk edges="gneE0 -gneE0"/>
    </person>
    <person id="345" type="DEFAULT_PEDTYPE" depart="501.60">
        <walk edges="-gneE0 gneE2"/>
    </person>
    <person id="347" type="DEFAULT_PEDTYPE" depart="503.00">
        <walk edges="-gneE0"/>
    </person>
    <person id="349" type="DEFAULT_PEDTYPE" depart="505.80">
        <walk edges="gneE2 -gneE0"/>
    </person>
    <person id="350" type="DEFAULT_PEDTYPE" depart="506.20">
        <walk edges="-gneE0 gneE0"/>
    </person>
    <person id="351" type="DEFAULT_PEDTYPE" depart="509.80">
        <walk edges="-gneE0"/>
    </person>
    <person id="353" type="DEFAULT_PEDTYPE" depart="510.20">
        <walk edges="-gneE0 gneE0"/>
    </person>
    <person id="354" type="DEFAULT_PEDTYPE" depart="512.80">
        <walk edges="-gneE0"/>
    </person>
    <person id="356" type="DEFAULT_PEDTYPE" depart="516.40">
        <walk edges="gneE2 gneE0"/>
    </person>
    <person id="357" type="DEFAULT_PEDTYPE" depart="518.20">
        <walk edges="gneE0 -gneE0"/>
    </person>
    <person id="358" type="DEFAULT_PEDTYPE" depart="524.60">
        <walk edges="-gneE0 gneE2"/>
    </person>
    <person id="359" type="DEFAULT_PEDTYPE" depart="526.40">
        <walk edges="gneE0 gneE2"/>
    </person>
    <person id="361" type="DEFAULT_PEDTYPE" depart="528.60">
        <walk edges="-gneE0"/>
    </person>
    <person id="362" type="DEFAULT_PEDTYPE" depart="531.80">
        <walk edges="-gneE0"/>
    </person>
    <person id="363" type="DEFAULT_PEDTYPE" depart="532.00">
        <walk edges="gneE0"/>
    </person>
    <person id="367" type="DEFAULT_PEDTYPE" depart="535.40">
        <walk edges="gneE0"/>
    </person>
    <person id="368" type="DEFAULT_PEDTYPE" depart="537.00">
        <walk edges="-gneE0 gneE0"/>
    </person>
    <person id="369" type="DEFAULT_PEDTYPE" depart="537.60">
        <walk edges="gneE0"/>
    </person>
    <person id="372" type="DEFAULT_PEDTYPE" depart="542.40">
        <walk edges="gneE0"/>
    </person>
    <person id="373" type="DEFAULT_PEDTYPE" depart="544.20">
        <walk edges="-gneE0 gneE0"/>
    </person>
    <person id="374" type="DEFAULT_PEDTYPE" depart="544.20">
        <walk edges="gneE0"/>
    </person>
    <person id="375" type="DEFAULT_PEDTYPE" depart="544.60">
        <walk edges="-gneE0"/>
    </person>
    <person id="376" type="DEFAULT_PEDTYPE" depart="545.60">
        <walk edges="gneE0"/>
    </person>
    <person id="377" type="DEFAULT_PEDTYPE" depart="546.80">
        <walk edges="gneE2 -gneE0"/>
    </person>
    <person id="378" type="DEFAULT_PEDTYPE" depart="547.60">
        <walk edges="gneE0 -gneE0"/>
    </person>
    <person id="379" type="DEFAULT_PEDTYPE" depart="548.40">
        <walk edges="gneE0"/>
    </person>
    <person id="380" type="DEFAULT_PEDTYPE" depart="549.00">
        <walk edges="-gneE0 gneE0"/>
    </person>
    <person id="381" type="DEFAULT_PEDTYPE" depart="550.40">
        <walk edges="gneE0"/>
    </person>
    <person id="383" type="DEFAULT_PEDTYPE" depart="552.40">
        <walk edges="-gneE0"/>
    </person>
    <person id="384" type="DEFAULT_PEDTYPE" depart="553.40">
        <walk edges="gneE0 gneE2"/>
    </person>
    <person id="385" type="DEFAULT_PEDTYPE" depart="554.00">
        <walk edges="gneE0"/>
    </person>
    <person id="386" type="DEFAULT_PEDTYPE" depart="554.40">
        <walk edges="-gneE0 gneE0"/>
    </person>
    <person id="387" type="DEFAULT_PEDTYPE" depart="554.60">
        <walk edges="gneE2 gneE0"/>
    </person>
    <person id="392" type="DEFAULT_PEDTYPE" depart="562.60">
        <walk edges="gneE0 -gneE0"/>
    </person>
    <person id="393" type="DEFAULT_PEDTYPE" depart="565.20">
        <walk edges="gneE2 -gneE0"/>
    </person>
    <person id="395" type="DEFAULT_PEDTYPE" depart="569.20">
        <walk edges="gneE2 -gneE0"/>
    </person>
    <person id="396" type="DEFAULT_PEDTYPE" depart="570.00">
        <walk edges="-gneE0 gneE2"/>
    </person>
    <person id="397" type="DEFAULT_PEDTYPE" depart="572.20">
        <walk edges="gneE0"/>
    </person>
    <person id="399" type="DEFAULT_PEDTYPE" depart="574.60">
        <walk edges="gneE0 -gneE0"/>
    </person>
    <person id="402" type="DEFAULT_PEDTYPE" depart="576.80">
        <walk edges="gneE2 -gneE0"/>
    </person>
    <person id="403" type="DEFAULT_PEDTYPE" depart="577.60">
        <walk edges="gneE0"/>
    </person>
    <person id="404" type="DEFAULT_PEDTYPE" depart="578.20">