<?xml version="1.0" encoding="UTF-8"?>

<!-- generated on 2022-12-07 17:38:33.483166 by randomTrips.py v1_15_0+0682-ef022823415
<configuration>
    <end value="1000"/>
    <length value="True"/>
    <max-distance value="800.0"/>
    <net-file value="/home/toore/Tirocinio_SUMO/Scenario/MOdifica_area_pedonale/Area_pedonale.net.xml"/>
    <period value="1.4"/>
    <persontrips value="True"/>
    <random value="True"/>
    <random-depart value="True"/>
    <route-file value="persontrip.rou.xml"/>
    <seed value="100000"/>
    <trip-attributes value="type=&quot;DEFAULT_PEDTYPE&quot;"/>
</configuration>
-->

<routes xmlns:xsi="http://www.w3.org/2001/XMLSchema-instance" xsi:noNamespaceSchemaLocation="http://sumo.dlr.de/xsd/routes_file.xsd">
    <person id="0" depart="1.80" type="DEFAULT_PEDTYPE">
        <personTrip from="-gneE0" to="-gneE0"/>
    </person>
    <person id="1" depart="3.60" type="DEFAULT_PEDTYPE">
        <personTrip from="gneE0" to="gneE0"/>
    </person>
    <person id="2" depart="4.00" type="DEFAULT_PEDTYPE">
        <personTrip from="-gneE0" to="gneE0"/>
    </person>
    <person id="3" depart="4.00" type="DEFAULT_PEDTYPE">
        <personTrip from="gneE0" to="gneE0"/>
    </person>
    <person id="4" depart="5.00" type="DEFAULT_PEDTYPE">
        <personTrip from="gneE3" to="gneE0"/>
    </person>
    <person id="5" depart="5.60" type="DEFAULT_PEDTYPE">
        <personTrip from="-gneE0" to="gneE0"/>
    </person>
    <person id="6" depart="8.00" type="DEFAULT_PEDTYPE">
        <personTrip from="-gneE0" to="-gneE0"/>
    </person>
    <person id="7" depart="8.40" type="DEFAULT_PEDTYPE">
        <personTrip from="gneE1" to="gneE0"/>
    </person>
    <person id="8" depart="9.80" type="DEFAULT_PEDTYPE">
        <personTrip from="-gneE0" to="gneE0"/>
    </person>
    <person id="9" depart="11.00" type="DEFAULT_PEDTYPE">
        <personTrip from="-gneE0" to="gneE1"/>
    </person>
    <person id="10" depart="11.80" type="DEFAULT_PEDTYPE">
        <personTrip from="-gneE0" to="-gneE0"/>
    </person>
    <person id="11" depart="12.00" type="DEFAULT_PEDTYPE">
        <personTrip from="-gneE0" to="gneE0"/>
    </person>
    <person id="12" depart="13.20" type="DEFAULT_PEDTYPE">
        <personTrip from="-gneE0" to="gneE3"/>
    </person>
    <person id="13" depart="13.20" type="DEFAULT_PEDTYPE">
        <personTrip from="-gneE0" to="gneE0"/>
    </person>
    <person id="14" depart="16.20" type="DEFAULT_PEDTYPE">
        <personTrip from="gneE0" to="gneE2"/>
    </person>
    <person id="15" depart="19.00" type="DEFAULT_PEDTYPE">
        <personTrip from="gneE0" to="gneE2"/>
    </person>
    <person id="16" depart="21.00" type="DEFAULT_PEDTYPE">
        <personTrip from="gneE2" to="gneE3"/>
    </person>
    <person id="17" depart="23.00" type="DEFAULT_PEDTYPE">
        <personTrip from="-gneE0" to="gneE3"/>
    </person>
    <person id="18" depart="23.00" type="DEFAULT_PEDTYPE">
        <personTrip from="gneE0" to="-gneE0"/>
    </person>
    <person id="19" depart="23.40" type="DEFAULT_PEDTYPE">
        <personTrip from="gneE0" to="-gneE0"/>
    </person>
    <person id="20" depart="24.80" type="DEFAULT_PEDTYPE">
        <personTrip from="gneE2" to="gneE0"/>
    </person>
    <person id="21" depart="29.00" type="DEFAULT_PEDTYPE">
        <personTrip from="gneE0" to="-gneE0"/>
    </person>
    <person id="22" depart="30.00" type="DEFAULT_PEDTYPE">
        <personTrip from="gneE3" to="gneE0"/>
    </person>
    <person id="23" depart="31.80" type="DEFAULT_PEDTYPE">
        <personTrip from="-gneE0" to="gneE0"/>
    </person>
    <person id="24" depart="33.20" type="DEFAULT_PEDTYPE">
        <personTrip from="gneE1" to="gneE2"/>
    </person>
    <person id="25" depart="34.80" type="DEFAULT_PEDTYPE">
        <personTrip from="gneE1" to="gneE0"/>
    </person>
    <person id="26" depart="36.80" type="DEFAULT_PEDTYPE">
        <personTrip from="gneE0" to="gneE1"/>
    </person>
    <person id="27" depart="40.60" type="DEFAULT_PEDTYPE">
        <personTrip from="gneE0" to="gneE3"/>
    </person>
    <person id="28" depart="42.40" type="DEFAULT_PEDTYPE">
        <personTrip from="gneE1" to="gneE0"/>
    </person>
    <person id="29" depart="43.20" type="DEFAULT_PEDTYPE">
        <personTrip from="gneE0" to="gneE0"/>
    </person>
    <person id="30" depart="43.20" type="DEFAULT_PEDTYPE">
        <personTrip from="gneE0" to="-gneE0"/>
    </person>
    <person id="31" depart="43.60" type="DEFAULT_PEDTYPE">
        <personTrip from="-gneE0" to="gneE1"/>
    </person>
    <person id="32" depart="46.40" type="DEFAULT_PEDTYPE">
        <personTrip from="gneE1" to="gneE2"/>
    </person>
    <person id="33" depart="47.80" type="DEFAULT_PEDTYPE">
        <personTrip from="gneE0" to="gneE0"/>
    </person>
    <person id="34" depart="52.40" type="DEFAULT_PEDTYPE">
        <personTrip from="-gneE0" to="-gneE0"/>
    </person>
    <person id="35" depart="53.40" type="DEFAULT_PEDTYPE">
        <personTrip from="-gneE0" to="-gneE0"/>
    </person>
    <person id="36" depart="54.20" type="DEFAULT_PEDTYPE">
        <personTrip from="gneE0" to="-gneE0"/>
    </person>
    <person id="37" depart="55.20" type="DEFAULT_PEDTYPE">
        <personTrip from="gneE0" to="gneE0"/>
    </person>
    <person id="38" depart="55.60" type="DEFAULT_PEDTYPE">
        <personTrip from="gneE1" to="gneE3"/>
    </person>
    <person id="39" depart="59.00" type="DEFAULT_PEDTYPE">
        <personTrip from="gneE2" to="gneE3"/>
    </person>
    <person id="40" depart="59.20" type="DEFAULT_PEDTYPE">
        <personTrip from="gneE0" to="gneE0"/>
    </person>
    <person id="41" depart="62.80" type="DEFAULT_PEDTYPE">
        <personTrip from="gneE3" to="gneE3"/>
    </person>
    <person id="42" depart="63.00" type="DEFAULT_PEDTYPE">
        <personTrip from="-gneE0" to="gneE2"/>
    </person>
    <person id="43" depart="63.00" type="DEFAULT_PEDTYPE">
        <personTrip from="-gneE0" to="gneE3"/>
    </person>
    <person id="44" depart="64.20" type="DEFAULT_PEDTYPE">
        <personTrip from="-gneE0" to="gneE3"/>
    </person>
    <person id="45" depart="64.40" type="DEFAULT_PEDTYPE">
        <personTrip from="gneE0" to="gneE0"/>
    </person>
    <person id="46" depart="64.80" type="DEFAULT_PEDTYPE">
        <personTrip from="gneE3" to="gneE0"/>
    </person>
    <person id="47" depart="65.80" type="DEFAULT_PEDTYPE">
        <personTrip from="gneE1" to="gneE3"/>
    </person>
    <person id="48" depart="66.80" type="DEFAULT_PEDTYPE">
        <personTrip from="gneE0" to="gneE2"/>
    </person>
    <person id="49" depart="67.20" type="DEFAULT_PEDTYPE">
        <personTrip from="-gneE0" to="gneE0"/>
    </person>
    <person id="50" depart="70.80" type="DEFAULT_PEDTYPE">
        <personTrip from="-gneE0" to="gneE3"/>
    </person>
    <person id="51" depart="73.80" type="DEFAULT_PEDTYPE">
        <personTrip from="gneE1" to="gneE2"/>
    </person>
    <person id="52" depart="74.80" type="DEFAULT_PEDTYPE">
        <personTrip from="gneE0" to="gneE0"/>
    </person>
    <person id="53" depart="75.20" type="DEFAULT_PEDTYPE">
        <personTrip from="gneE3" to="gneE3"/>
    </person>
    <person id="54" depart="75.40" type="DEFAULT_PEDTYPE">
        <personTrip from="gneE3" to="-gneE0"/>
    </person>
    <person id="55" depart="77.60" type="DEFAULT_PEDTYPE">
        <personTrip from="gneE1" to="-gneE0"/>
    </person>
    <person id="56" depart="77.80" type="DEFAULT_PEDTYPE">
        <personTrip from="-gneE0" to="-gneE0"/>
    </person>
    <person id="57" depart="79.20" type="DEFAULT_PEDTYPE">
        <personTrip from="gneE3" to="gneE0"/>
    </person>
    <person id="58" depart="80.00" type="DEFAULT_PEDTYPE">
        <personTrip from="gneE3" to="gneE0"/>
    </person>
    <person id="59" depart="81.20" type="DEFAULT_PEDTYPE">
        <personTrip from="gneE0" to="-gneE0"/>
    </person>
    <person id="60" depart="81.40" type="DEFAULT_PEDTYPE">
        <personTrip from="gneE2" to="gneE3"/>
    </person>
    <person id="61" depart="83.80" type="DEFAULT_PEDTYPE">
        <personTrip from="-gneE0" to="-gneE0"/>
    </person>
    <person id="62" depart="84.40" type="DEFAULT_PEDTYPE">
        <personTrip from="gneE0" to="gneE2"/>
    </person>
    <person id="63" depart="84.80" type="DEFAULT_PEDTYPE">
        <personTrip from="-gneE0" to="gneE0"/>
    </person>
    <person id="64" depart="85.40" type="DEFAULT_PEDTYPE">
        <personTrip from="-gneE0" to="gneE3"/>
    </person>
    <person id="65" depart="87.40" type="DEFAULT_PEDTYPE">
        <personTrip from="gneE0" to="-gneE0"/>
    </person>
    <person id="66" depart="87.40" type="DEFAULT_PEDTYPE">
        <personTrip from="gneE3" to="gneE2"/>
    </person>
    <person id="67" depart="89.00" type="DEFAULT_PEDTYPE">
        <personTrip from="-gneE0" to="gneE1"/>
    </person>
    <person id="68" depart="89.40" type="DEFAULT_PEDTYPE">
        <personTrip from="gneE3" to="-gneE0"/>
    </person>
    <person id="69" depart="91.00" type="DEFAULT_PEDTYPE">
        <personTrip from="-gneE0" to="gneE3"/>
    </person>
    <person id="70" depart="94.00" type="DEFAULT_PEDTYPE">
        <personTrip from="-gneE0" to="gneE0"/>
    </person>
    <person id="71" depart="94.40" type="DEFAULT_PEDTYPE">
        <personTrip from="gneE0" to="-gneE0"/>
    </person>
    <person id="72" depart="94.80" type="DEFAULT_PEDTYPE">
        <personTrip from="-gneE0" to="gneE0"/>
    </person>
    <person id="73" depart="95.40" type="DEFAULT_PEDTYPE">
        <personTrip from="gneE1" to="-gneE0"/>
    </person>
    <person id="74" depart="96.00" type="DEFAULT_PEDTYPE">
        <personTrip from="gneE3" to="gneE3"/>
    </person>
    <person id="75" depart="97.40" type="DEFAULT_PEDTYPE">
        <personTrip from="-gneE0" to="gneE1"/>
    </person>
    <person id="76" depart="99.40" type="DEFAULT_PEDTYPE">
        <personTrip from="-gneE0" to="gneE3"/>
    </person>
    <person id="77" depart="102.00" type="DEFAULT_PEDTYPE">
        <personTrip from="gneE0" to="-gneE0"/>
    </person>
    <person id="78" depart="102.60" type="DEFAULT_PEDTYPE">
        <personTrip from="gneE3" to="gneE1"/>
    </person>
    <person id="79" depart="103.60" type="DEFAULT_PEDTYPE">
        <personTrip from="gneE0" to="gneE0"/>
    </person>
    <person id="80" depart="105.40" type="DEFAULT_PEDTYPE">
        <personTrip from="gneE3" to="gneE3"/>
    </person>
    <person id="81" depart="106.20" type="DEFAULT_PEDTYPE">
        <personTrip from="gneE1" to="gneE1"/>
    </person>
    <person id="82" depart="107.20" type="DEFAULT_PEDTYPE">
        <personTrip from="gneE2" to="-gneE0"/>
    </person>
    <person id="83" depart="107.40" type="DEFAULT_PEDTYPE">
        <personTrip from="gneE0" to="gneE0"/>
    </person>
    <person id="84" depart="110.20" type="DEFAULT_PEDTYPE">
        <personTrip from="gneE0" to="-gneE0"/>
    </person>
    <person id="85" depart="110.40" type="DEFAULT_PEDTYPE">
        <personTrip from="-gneE0" to="-gneE0"/>
    </person>
    <person id="86" depart="111.20" type="DEFAULT_PEDTYPE">
        <personTrip from="-gneE0" to="gneE0"/>
    </person>
    <person id="87" depart="112.40" type="DEFAULT_PEDTYPE">
        <personTrip from="gneE0" to="-gneE0"/>
    </person>
    <person id="88" depart="114.20" type="DEFAULT_PEDTYPE">
        <personTrip from="gneE3" to="-gneE0"/>
    </person>
    <person id="89" depart="115.60" type="DEFAULT_PEDTYPE">
        <personTrip from="gneE2" to="gneE0"/>
    </person>
    <person id="90" depart="116.20" type="DEFAULT_PEDTYPE">
        <personTrip from="-gneE0" to="-gneE0"/>
    </person>
    <person id="91" depart="116.80" type="DEFAULT_PEDTYPE">
        <personTrip from="gneE0" to="gneE0"/>
    </person>
    <person id="92" depart="118.80" type="DEFAULT_PEDTYPE">
        <personTrip from="gneE2" to="gneE0"/>
    </person>
    <person id="93" depart="119.40" type="DEFAULT_PEDTYPE">
        <personTrip from="gneE0" to="gneE0"/>
    </person>
    <person id="94" depart="119.40" type="DEFAULT_PEDTYPE">
        <personTrip from="gneE0" to="-gneE0"/>
    </person>
    <person id="95" depart="121.40" type="DEFAULT_PEDTYPE">
        <personTrip from="gneE2" to="-gneE0"/>
    </person>
    <person id="96" depart="121.60" type="DEFAULT_PEDTYPE">
        <personTrip from="gneE3" to="-gneE0"/>
    </person>
    <person id="97" depart="121.60" type="DEFAULT_PEDTYPE">
        <personTrip from="gneE0" to="gneE1"/>
    </person>
    <person id="98" depart="123.60" type="DEFAULT_PEDTYPE">
        <personTrip from="-gneE0" to="gneE0"/>
    </person>
    <person id="99" depart="125.80" type="DEFAULT_PEDTYPE">
        <personTrip from="gneE0" to="gneE0"/>
    </person>
    <person id="100" depart="127.00" type="DEFAULT_PEDTYPE">
        <personTrip from="-gneE0" to="gneE1"/>
    </person>
    <person id="101" depart="128.40" type="DEFAULT_PEDTYPE">
        <personTrip from="gneE0" to="-gneE0"/>
    </person>
    <person id="102" depart="128.80" type="DEFAULT_PEDTYPE">
        <personTrip from="gneE2" to="gneE0"/>
    </person>
    <person id="103" depart="129.20" type="DEFAULT_PEDTYPE">
        <personTrip from="-gneE0" to="-gneE0"/>
    </person>
    <person id="104" depart="129.40" type="DEFAULT_PEDTYPE">
        <personTrip from="gneE2" to="gneE0"/>
    </person>
    <person id="105" depart="130.00" type="DEFAULT_PEDTYPE">
        <personTrip from="-gneE0" to="gneE2"/>
    </person>
    <person id="106" depart="130.00" type="DEFAULT_PEDTYPE">
        <personTrip from="gneE1" to="gneE0"/>
    </person>
    <person id="107" depart="130.60" type="DEFAULT_PEDTYPE">
        <personTrip from="-gneE0" to="gneE0"/>
    </person>
    <person id="108" depart="134.20" type="DEFAULT_PEDTYPE">
        <personTrip from="gneE0" to="gneE1"/>
    </person>
    <person id="109" depart="134.40" type="DEFAULT_PEDTYPE">
        <personTrip from="gneE3" to="-gneE0"/>
    </person>
    <person id="110" depart="139.60" type="DEFAULT_PEDTYPE">
        <personTrip from="gneE0" to="gneE0"/>
    </person>
    <person id="111" depart="141.20" type="DEFAULT_PEDTYPE">
        <personTrip from="gneE0" to="-gneE0"/>
    </person>
    <person id="112" depart="141.40" type="DEFAULT_PEDTYPE">
        <personTrip from="gneE3" to="gneE0"/>
    </person>
    <person id="113" depart="141.80" type="DEFAULT_PEDTYPE">
        <personTrip from="gneE0" to="-gneE0"/>
    </person>
    <person id="114" depart="144.60" type="DEFAULT_PEDTYPE">
        <personTrip from="-gneE0" to="gneE2"/>
    </person>
    <person id="115" depart="145.40" type="DEFAULT_PEDTYPE">
        <personTrip from="-gneE0" to="gneE2"/>
    </person>
    <person id="116" depart="146.40" type="DEFAULT_PEDTYPE">
        <personTrip from="gneE0" to="gneE0"/>
    </person>
    <person id="117" depart="149.80" type="DEFAULT_PEDTYPE">
        <personTrip from="gneE1" to="-gneE0"/>
    </person>
    <person id="118" depart="151.00" type="DEFAULT_PEDTYPE">
        <personTrip from="gneE0" to="gneE1"/>
    </person>
    <person id="119" depart="154.20" type="DEFAULT_PEDTYPE">
        <personTrip from="gneE0" to="gneE0"/>
    </person>
    <person id="120" depart="155.00" type="DEFAULT_PEDTYPE">
        <personTrip from="-gneE0" to="gneE3"/>
    </person>
    <person id="121" depart="159.40" type="DEFAULT_PEDTYPE">
        <personTrip from="gneE2" to="gneE3"/>
    </person>
    <person id="122" depart="162.60" type="DEFAULT_PEDTYPE">
        <personTrip from="-gneE0" to="gneE0"/>
    </person>
    <person id="123" depart="162.80" type="DEFAULT_PEDTYPE">
        <personTrip from="gneE0" to="-gneE0"/>
    </person>
    <person id="124" depart="164.20" type="DEFAULT_PEDTYPE">
        <personTrip from="-gneE0" to="gneE0"/>
    </person>
    <person id="125" depart="167.40" type="DEFAULT_PEDTYPE">
        <personTrip from="gneE1" to="gneE0"/>
    </person>
    <person id="126" depart="168.80" type="DEFAULT_PEDTYPE">
        <personTrip from="-gneE0" to="-gneE0"/>
    </person>
    <person id="127" depart="171.60" type="DEFAULT_PEDTYPE">
        <personTrip from="gneE0" to="gneE0"/>
    </person>
    <person id="128" depart="174.20" type="DEFAULT_PEDTYPE">
        <personTrip from="-gneE0" to="gneE0"/>
    </person>
    <person id="129" depart="175.40" type="DEFAULT_PEDTYPE">
        <personTrip from="-gneE0" to="gneE0"/>
    </person>
    <person id="130" depart="176.20" type="DEFAULT_PEDTYPE">
        <personTrip from="-gneE0" to="gneE0"/>
    </person>
    <person id="131" depart="177.60" type="DEFAULT_PEDTYPE">
        <personTrip from="-gneE0" to="-gneE0"/>
    </person>
    <person id="132" depart="178.40" type="DEFAULT_PEDTYPE">
        <personTrip from="gneE0" to="-gneE0"/>
    </person>
    <person id="133" depart="182.20" type="DEFAULT_PEDTYPE">
        <personTrip from="gneE0" to="gneE1"/>
    </person>
    <person id="134" depart="182.60" type="DEFAULT_PEDTYPE">
        <personTrip from="-gneE0" to="gneE0"/>
    </person>
    <person id="135" depart="183.60" type="DEFAULT_PEDTYPE">
        <personTrip from="gneE1" to="-gneE0"/>
    </person>
    <person id="136" depart="184.60" type="DEFAULT_PEDTYPE">
        <personTrip from="gneE0" to="-gneE0"/>
    </person>
    <person id="137" depart="186.00" type="DEFAULT_PEDTYPE">
        <personTrip from="gneE0" to="gneE0"/>
    </person>
    <person id="138" depart="187.40" type="DEFAULT_PEDTYPE">
        <personTrip from="gneE1" to="gneE3"/>
    </person>
    <person id="139" depart="187.40" type="DEFAULT_PEDTYPE">
        <personTrip from="gneE3" to="-gneE0"/>
    </person>
    <person id="140" depart="190.00" type="DEFAULT_PEDTYPE">
        <personTrip from="-gneE0" to="gneE1"/>
    </person>
    <person id="141" depart="190.20" type="DEFAULT_PEDTYPE">
        <personTrip from="-gneE0" to="gneE0"/>
    </person>
    <person id="142" depart="190.40" type="DEFAULT_PEDTYPE">
        <personTrip from="gneE3" to="-gneE0"/>
    </person>
    <person id="143" depart="191.60" type="DEFAULT_PEDTYPE">
        <personTrip from="gneE0" to="-gneE0"/>
    </person>
    <person id="144" depart="193.60" type="DEFAULT_PEDTYPE">
        <personTrip from="gneE1" to="gneE3"/>
    </person>
    <person id="145" depart="195.00" type="DEFAULT_PEDTYPE">
        <personTrip from="gneE2" to="-gneE0"/>
    </person>
    <person id="146" depart="195.80" type="DEFAULT_PEDTYPE">
        <personTrip from="-gneE0" to="-gneE0"/>
    </person>
    <person id="147" depart="196.20" type="DEFAULT_PEDTYPE">
        <personTrip from="gneE0" to="gneE3"/>
    </person>
    <person id="148" depart="197.40" type="DEFAULT_PEDTYPE">
        <personTrip from="gneE0" to="gneE3"/>
    </person>
    <person id="149" depart="200.20" type="DEFAULT_PEDTYPE">
        <personTrip from="gneE2" to="gneE0"/>
    </person>
    <person id="150" depart="200.60" type="DEFAULT_PEDTYPE">
        <personTrip from="gneE0" to="gneE2"/>
    </person>
    <person id="151" depart="200.80" type="DEFAULT_PEDTYPE">
        <personTrip from="gneE0" to="gneE3"/>
    </person>
    <person id="152" depart="201.20" type="DEFAULT_PEDTYPE">
        <personTrip from="gneE0" to="gneE3"/>
    </person>
    <person id="153" depart="202.40" type="DEFAULT_PEDTYPE">
        <personTrip from="-gneE0" to="gneE1"/>
    </person>
    <person id="154" depart="204.20" type="DEFAULT_PEDTYPE">
        <personTrip from="-gneE0" to="-gneE0"/>
    </person>
    <person id="155" depart="205.00" type="DEFAULT_PEDTYPE">
        <personTrip from="-gneE0" to="-gneE0"/>
    </person>
    <person id="156" depart="209.60" type="DEFAULT_PEDTYPE">
        <personTrip from="-gneE0" to="gneE0"/>
    </person>
    <person id="157" depart="209.60" type="DEFAULT_PEDTYPE">
        <personTrip from="gneE2" to="gneE1"/>
    </person>
    <person id="158" depart="210.00" type="DEFAULT_PEDTYPE">
        <personTrip from="gneE3" to="-gneE0"/>
    </person>
    <person id="159" depart="211.00" type="DEFAULT_PEDTYPE">
        <personTrip from="gneE0" to="gneE0"/>
    </person>
    <person id="160" depart="211.40" type="DEFAULT_PEDTYPE">
        <personTrip from="gneE2" to="-gneE0"/>
    </person>
    <person id="161" depart="214.20" type="DEFAULT_PEDTYPE">
        <personTrip from="gneE3" to="gneE0"/>
    </person>
    <person id="162" depart="214.80" type="DEFAULT_PEDTYPE">
        <personTrip from="-gneE0" to="-gneE0"/>
    </person>
    <person id="163" depart="216.80" type="DEFAULT_PEDTYPE">
        <personTrip from="gneE1" to="-gneE0"/>
    </person>
    <person id="164" depart="217.60" type="DEFAULT_PEDTYPE">
        <personTrip from="-gneE0" to="gneE3"/>
    </person>
    <person id="165" depart="219.60" type="DEFAULT_PEDTYPE">
        <personTrip from="gneE0" to="gneE2"/>
    </person>
    <person id="166" depart="220.20" type="DEFAULT_PEDTYPE">
        <personTrip from="gneE2" to="-gneE0"/>
    </person>
    <person id="167" depart="222.40" type="DEFAULT_PEDTYPE">
        <personTrip from="-gneE0" to="gneE3"/>
    </person>
    <person id="168" depart="222.80" type="DEFAULT_PEDTYPE">
        <personTrip from="-gneE0" to="gneE1"/>
    </person>
    <person id="169" depart="223.40" type="DEFAULT_PEDTYPE">
        <personTrip from="-gneE0" to="gneE1"/>
    </person>
    <person id="170" depart="229.60" type="DEFAULT_PEDTYPE">
        <personTrip from="-gneE0" to="gneE0"/>
    </person>
    <person id="171" depart="231.20" type="DEFAULT_PEDTYPE">
        <personTrip from="gneE0" to="-gneE0"/>
    </person>
    <person id="172" depart="233.00" type="DEFAULT_PEDTYPE">
        <personTrip from="gneE0" to="gneE0"/>
    </person>
    <person id="173" depart="235.80" type="DEFAULT_PEDTYPE">
        <personTrip from="gneE0" to="gneE3"/>
    </person>
    <person id="174" depart="238.00" type="DEFAULT_PEDTYPE">
        <personTrip from="gneE3" to="gneE2"/>
    </person>
    <person id="175" depart="239.80" type="DEFAULT_PEDTYPE">
        <personTrip from="gneE3" to="gneE0"/>
    </person>
    <person id="176" depart="240.00" type="DEFAULT_PEDTYPE">
        <personTrip from="-gneE0" to="gneE2"/>
    </person>
    <person id="177" depart="240.60" type="DEFAULT_PEDTYPE">
        <personTrip from="-gneE0" to="-gneE0"/>
    </person>
    <person id="178" depart="241.00" type="DEFAULT_PEDTYPE">
        <personTrip from="gneE3" to="-gneE0"/>
    </person>
    <person id="179" depart="241.40" type="DEFAULT_PEDTYPE">
        <personTrip from="gneE0" to="gneE1"/>
    </person>
    <person id="180" depart="244.80" type="DEFAULT_PEDTYPE">
        <personTrip from="gneE3" to="gneE1"/>
    </person>
    <person id="181" depart="245.60" type="DEFAULT_PEDTYPE">
        <personTrip from="-gneE0" to="gneE1"/>
    </person>
    <person id="182" depart="248.80" type="DEFAULT_PEDTYPE">
        <personTrip from="-gneE0" to="-gneE0"/>
    </person>
    <person id="183" depart="249.00" type="DEFAULT_PEDTYPE">
        <personTrip from="gneE0" to="gneE0"/>
    </person>
    <person id="184" depart="249.40" type="DEFAULT_PEDTYPE">
        <personTrip from="gneE0" to="gneE3"/>
    </person>
    <person id="185" depart="255.20" type="DEFAULT_PEDTYPE">
        <personTrip from="-gneE0" to="gneE0"/>
    </person>
    <person id="186" depart="255.60" type="DEFAULT_PEDTYPE">
        <personTrip from="gneE3" to="gneE0"/>
    </person>
    <person id="187" depart="257.20" type="DEFAULT_PEDTYPE">
        <personTrip from="gneE0" to="gneE0"/>
    </person>
    <person id="188" depart="259.20" type="DEFAULT_PEDTYPE">
        <personTrip from="-gneE0" to="gneE3"/>
    </person>
    <person id="189" depart="263.80" type="DEFAULT_PEDTYPE">
        <personTrip from="gneE0" to="-gneE0"/>
    </person>
    <person id="190" depart="264.60" type="DEFAULT_PEDTYPE">
        <personTrip from="gneE0" to="-gneE0"/>
    </person>
    <person id="191" depart="264.80" type="DEFAULT_PEDTYPE">
        <personTrip from="-gneE0" to="-gneE0"/>
    </person>
    <person id="192" depart="267.40" type="DEFAULT_PEDTYPE">
        <personTrip from="-gneE0" to="gneE3"/>
    </person>
    <person id="193" depart="267.60" type="DEFAULT_PEDTYPE">
        <personTrip from="gneE0" to="-gneE0"/>
    </person>
    <person id="194" depart="270.60" type="DEFAULT_PEDTYPE">
        <personTrip from="gneE0" to="gneE2"/>
    </person>
    <person id="195" depart="274.60" type="DEFAULT_PEDTYPE">
        <personTrip from="-gneE0" to="gneE0"/>
    </person>
    <person id="196" depart="277.60" type="DEFAULT_PEDTYPE">
        <personTrip from="-gneE0" to="gneE0"/>
    </person>
    <person id="197" depart="278.00" type="DEFAULT_PEDTYPE">
        <personTrip from="gneE1" to="-gneE0"/>
    </person>
    <person id="198" depart="279.80" type="DEFAULT_PEDTYPE">
        <personTrip from="gneE0" to="gneE0"/>
    </person>
    <person id="199" depart="282.00" type="DEFAULT_PEDTYPE">
        <personTrip from="gneE3" to="gneE0"/>
    </person>
    <person id="200" depart="282.20" type="DEFAULT_PEDTYPE">
        <personTrip from="gneE0" to="gneE3"/>
    </person>
    <person id="201" depart="283.40" type="DEFAULT_PEDTYPE">
        <personTrip from="gneE0" to="gneE0"/>
    </person>
    <person id="202" depart="283.40" type="DEFAULT_PEDTYPE">
        <personTrip from="-gneE0" to="gneE3"/>
    </person>
    <person id="203" depart="285.20" type="DEFAULT_PEDTYPE">
        <personTrip from="gneE1" to="gneE0"/>
    </person>
    <person id="204" depart="286.60" type="DEFAULT_PEDTYPE">
        <personTrip from="-gneE0" to="gneE0"/>
    </person>
    <person id="205" depart="287.00" type="DEFAULT_PEDTYPE">
        <personTrip from="gneE3" to="-gneE0"/>
    </person>
    <person id="206" depart="290.40" type="DEFAULT_PEDTYPE">
        <personTrip from="gneE0" to="gneE0"/>
    </person>
    <person id="207" depart="290.60" type="DEFAULT_PEDTYPE">
        <personTrip from="-gneE0" to="-gneE0"/>
    </person>
    <person id="208" depart="294.40" type="DEFAULT_PEDTYPE">
        <personTrip from="gneE0" to="gneE0"/>
    </person>
    <person id="209" depart="297.00" type="DEFAULT_PEDTYPE">
        <personTrip from="-gneE0" to="gneE0"/>
    </person>
    <person id="210" depart="299.20" type="DEFAULT_PEDTYPE">
        <personTrip from="gneE3" to="gneE2"/>
    </person>
    <person id="211" depart="304.60" type="DEFAULT_PEDTYPE">
        <personTrip from="gneE1" to="gneE3"/>
    </person>
    <person id="212" depart="306.00" type="DEFAULT_PEDTYPE">
        <personTrip from="gneE0" to="gneE3"/>
    </person>
    <person id="213" depart="306.00" type="DEFAULT_PEDTYPE">
        <personTrip from="gneE0" to="gneE3"/>
    </person>
    <person id="214" depart="307.20" type="DEFAULT_PEDTYPE">
        <personTrip from="gneE0" to="gneE0"/>
    </person>
    <person id="215" depart="312.00" type="DEFAULT_PEDTYPE">
        <personTrip from="-gneE0" to="gneE1"/>
    </person>
    <person id="216" depart="312.40" type="DEFAULT_PEDTYPE">
        <personTrip from="gneE0" to="gneE0"/>
    </person>
    <person id="217" depart="313.00" type="DEFAULT_PEDTYPE">
        <personTrip from="-gneE0" to="-gneE0"/>
    </person>
    <person id="218" depart="313.20" type="DEFAULT_PEDTYPE">
        <personTrip from="gneE2" to="gneE1"/>
    </person>
    <person id="219" depart="313.40" type="DEFAULT_PEDTYPE">
        <personTrip from="gneE1" to="gneE0"/>
    </person>
    <person id="220" depart="314.00" type="DEFAULT_PEDTYPE">
        <personTrip from="gneE1" to="-gneE0"/>
    </person>
    <person id="221" depart="315.20" type="DEFAULT_PEDTYPE">
        <personTrip from="gneE0" to="-gneE0"/>
    </person>
    <person id="222" depart="316.00" type="DEFAULT_PEDTYPE">
        <personTrip from="-gneE0" to="gneE0"/>
    </person>
    <person id="223" depart="317.60" type="DEFAULT_PEDTYPE">
        <personTrip from="-gneE0" to="gneE3"/>
    </person>
    <person id="224" depart="318.80" type="DEFAULT_PEDTYPE">
        <personTrip from="-gneE0" to="-gneE0"/>
    </person>
    <person id="225" depart="324.20" type="DEFAULT_PEDTYPE">
        <personTrip from="-gneE0" to="gneE0"/>
    </person>
    <person id="226" depart="326.00" type="DEFAULT_PEDTYPE">
        <personTrip from="-gneE0" to="gneE3"/>
    </person>
    <person id="227" depart="326.00" type="DEFAULT_PEDTYPE">
        <personTrip from="-gneE0" to="gneE1"/>
    </person>
    <person id="228" depart="326.20" type="DEFAULT_PEDTYPE">
        <personTrip from="gneE0" to="-gneE0"/>
    </person>
    <person id="229" depart="326.40" type="DEFAULT_PEDTYPE">
        <personTrip from="gneE1" to="gneE0"/>
    </person>
    <person id="230" depart="328.00" type="DEFAULT_PEDTYPE">
        <personTrip from="gneE0" to="gneE0"/>
    </person>
    <person id="231" depart="328.40" type="DEFAULT_PEDTYPE">
        <personTrip from="gneE3" to="gneE0"/>
    </person>
    <person id="232" depart="331.00" type="DEFAULT_PEDTYPE">
        <personTrip from="gneE0" to="gneE3"/>
    </person>
    <person id="233" depart="331.60" type="DEFAULT_PEDTYPE">
        <personTrip from="gneE1" to="gneE0"/>
    </person>
    <person id="234" depart="331.80" type="DEFAULT_PEDTYPE">
        <personTrip from="gneE3" to="gneE0"/>
    </person>
    <person id="235" depart="332.00" type="DEFAULT_PEDTYPE">
        <personTrip from="gneE0" to="gneE0"/>
    </person>
    <person id="236" depart="332.20" type="DEFAULT_PEDTYPE">
        <personTrip from="gneE3" to="gneE0"/>
    </person>
    <person id="237" depart="334.40" type="DEFAULT_PEDTYPE">
        <personTrip from="gneE3" to="gneE0"/>
    </person>
    <person id="238" depart="335.20" type="DEFAULT_PEDTYPE">
        <personTrip from="gneE0" to="gneE0"/>
    </person>
    <person id="239" depart="335.40" type="DEFAULT_PEDTYPE">
        <personTrip from="gneE0" to="gneE0"/>
    </person>
    <person id="240" depart="337.20" type="DEFAULT_PEDTYPE">
        <personTrip from="gneE3" to="-gneE0"/>
    </person>
    <person id="241" depart="341.00" type="DEFAULT_PEDTYPE">
        <personTrip from="gneE0" to="gneE0"/>
    </person>