<?xml version="1.0" encoding="UTF-8"?>

<!-- generated on 2022-12-05 17:35:59.002212 by randomTrips.py v1_15_0+0682-ef022823415
<configuration>
    <end value="1000"/>
    <length value="True"/>
    <max-distance value="800.0"/>
    <net-file value="/home/toore/Tirocinio_SUMO/Scenario/MOdifica_area_pedonale/Area_pedonale.net.xml"/>
    <pedestrians value="True"/>
    <period value="1.4"/>
    <random value="True"/>
    <random-depart value="True"/>
    <route-file value="peds.rou.xml"/>
    <seed value="100000"/>
    <trip-attributes value="type=&quot;DEFAULT_PEDTYPE&quot;"/>
</configuration>
-->

<routes xmlns:xsi="http://www.w3.org/2001/XMLSchema-instance" xsi:noNamespaceSchemaLocation="http://sumo.dlr.de/xsd/routes_file.xsd">
    <person id="0" depart="1.40" type="DEFAULT_PEDTYPE">
        <walk from="gneE3" to="gneE1"/>
    </person>
    <person id="1" depart="2.20" type="DEFAULT_PEDTYPE">
        <walk from="-gneE0" to="gneE0"/>
    </person>
    <person id="2" depart="2.20" type="DEFAULT_PEDTYPE">
        <walk from="-gneE0" to="gneE0"/>
    </person>
    <person id="3" depart="4.00" type="DEFAULT_PEDTYPE">
        <walk from="-gneE0" to="gneE0"/>
    </person>
    <person id="4" depart="5.00" type="DEFAULT_PEDTYPE">
        <walk from="-gneE0" to="-gneE0"/>
    </person>
    <person id="5" depart="6.00" type="DEFAULT_PEDTYPE">
        <walk from="-gneE0" to="-gneE0"/>
    </person>
    <person id="6" depart="6.80" type="DEFAULT_PEDTYPE">
        <walk from="gneE3" to="-gneE0"/>
    </person>
    <person id="7" depart="8.80" type="DEFAULT_PEDTYPE">
        <walk from="gneE0" to="gneE3"/>
    </person>
    <person id="8" depart="8.80" type="DEFAULT_PEDTYPE">
        <walk from="-gneE0" to="-gneE0"/>
    </person>
    <person id="9" depart="12.20" type="DEFAULT_PEDTYPE">
        <walk from="-gneE0" to="gneE0"/>
    </person>
    <person id="10" depart="12.40" type="DEFAULT_PEDTYPE">
        <walk from="gneE3" to="gneE1"/>
    </person>
    <person id="11" depart="14.00" type="DEFAULT_PEDTYPE">
        <walk from="-gneE0" to="gneE0"/>
    </person>
    <person id="12" depart="15.40" type="DEFAULT_PEDTYPE">
        <walk from="-gneE0" to="gneE0"/>
    </person>
    <person id="13" depart="15.60" type="DEFAULT_PEDTYPE">
        <walk from="gneE0" to="gneE0"/>
    </person>
    <person id="14" depart="19.20" type="DEFAULT_PEDTYPE">
        <walk from="gneE0" to="gneE3"/>
    </person>
    <person id="15" depart="21.20" type="DEFAULT_PEDTYPE">
        <walk from="-gneE0" to="gneE0"/>
    </person>
    <person id="16" depart="21.40" type="DEFAULT_PEDTYPE">
        <walk from="gneE2" to="gneE2"/>
    </person>
    <person id="17" depart="23.20" type="DEFAULT_PEDTYPE">
        <walk from="gneE0" to="-gneE0"/>
    </person>
    <person id="18" depart="23.40" type="DEFAULT_PEDTYPE">
        <walk from="gneE0" to="-gneE0"/>
    </person>
    <person id="19" depart="23.80" type="DEFAULT_PEDTYPE">
        <walk from="-gneE0" to="gneE2"/>
    </person>
    <person id="20" depart="24.60" type="DEFAULT_PEDTYPE">
        <walk from="gneE0" to="gneE2"/>
    </person>
    <person id="21" depart="25.80" type="DEFAULT_PEDTYPE">
        <walk from="gneE0" to="-gneE0"/>
    </person>
    <person id="22" depart="26.00" type="DEFAULT_PEDTYPE">
        <walk from="gneE3" to="gneE0"/>
    </person>
    <person id="23" depart="27.20" type="DEFAULT_PEDTYPE">
        <walk from="gneE0" to="gneE0"/>
    </person>
    <person id="24" depart="28.20" type="DEFAULT_PEDTYPE">
        <walk from="gneE1" to="-gneE0"/>
    </person>
    <person id="25" depart="34.80" type="DEFAULT_PEDTYPE">
        <walk from="gneE2" to="gneE0"/>
    </person>
    <person id="26" depart="37.80" type="DEFAULT_PEDTYPE">
        <walk from="gneE0" to="gneE1"/>
    </person>
    <person id="27" depart="39.60" type="DEFAULT_PEDTYPE">
        <walk from="gneE3" to="-gneE0"/>
    </person>
    <person id="28" depart="40.00" type="DEFAULT_PEDTYPE">
        <walk from="-gneE0" to="-gneE0"/>
    </person>
    <person id="29" depart="41.80" type="DEFAULT_PEDTYPE">
        <walk from="gneE2" to="gneE0"/>
    </person>
    <person id="30" depart="42.40" type="DEFAULT_PEDTYPE">
        <walk from="gneE0" to="-gneE0"/>
    </person>
    <person id="31" depart="42.40" type="DEFAULT_PEDTYPE">
        <walk from="gneE1" to="-gneE0"/>
    </person>
    <person id="32" depart="44.00" type="DEFAULT_PEDTYPE">
        <walk from="gneE0" to="-gneE0"/>
    </person>
    <person id="33" depart="46.60" type="DEFAULT_PEDTYPE">
        <walk from="gneE3" to="gneE0"/>
    </person>
    <person id="34" depart="50.20" type="DEFAULT_PEDTYPE">
        <walk from="gneE0" to="gneE3"/>
    </person>
    <person id="35" depart="52.80" type="DEFAULT_PEDTYPE">
        <walk from="gneE0" to="-gneE0"/>
    </person>
    <person id="36" depart="53.00" type="DEFAULT_PEDTYPE">
        <walk from="gneE2" to="gneE0"/>
    </person>
    <person id="37" depart="54.20" type="DEFAULT_PEDTYPE">
        <walk from="-gneE0" to="gneE0"/>
    </person>
    <person id="38" depart="56.00" type="DEFAULT_PEDTYPE">
        <walk from="-gneE0" to="gneE0"/>
    </person>
    <person id="39" depart="56.20" type="DEFAULT_PEDTYPE">
        <walk from="gneE2" to="gneE0"/>
    </person>
    <person id="40" depart="57.60" type="DEFAULT_PEDTYPE">
        <walk from="-gneE0" to="-gneE0"/>
    </person>
    <person id="41" depart="58.40" type="DEFAULT_PEDTYPE">
        <walk from="-gneE0" to="gneE0"/>
    </person>
    <person id="42" depart="61.20" type="DEFAULT_PEDTYPE">
        <walk from="gneE3" to="gneE2"/>
    </person>
    <person id="43" depart="64.40" type="DEFAULT_PEDTYPE">
        <walk from="gneE0" to="gneE3"/>
    </person>
    <person id="44" depart="65.20" type="DEFAULT_PEDTYPE">
        <walk from="gneE2" to="gneE1"/>
    </person>
    <person id="45" depart="65.60" type="DEFAULT_PEDTYPE">
        <walk from="gneE0" to="-gneE0"/>
    </person>
    <person id="46" depart="66.80" type="DEFAULT_PEDTYPE">
        <walk from="-gneE0" to="gneE0"/>
    </person>
    <person id="47" depart="72.20" type="DEFAULT_PEDTYPE">
        <walk from="-gneE0" to="gneE0"/>
    </person>
    <person id="48" depart="72.80" type="DEFAULT_PEDTYPE">
        <walk from="gneE3" to="-gneE0"/>
    </person>
    <person id="49" depart="73.20" type="DEFAULT_PEDTYPE">
        <walk from="gneE0" to="gneE0"/>
    </person>
    <person id="50" depart="73.80" type="DEFAULT_PEDTYPE">
        <walk from="gneE0" to="gneE0"/>
    </person>
    <person id="51" depart="75.40" type="DEFAULT_PEDTYPE">
        <walk from="gneE0" to="gneE0"/>
    </person>
    <person id="52" depart="76.40" type="DEFAULT_PEDTYPE">
        <walk from="-gneE0" to="gneE0"/>
    </person>
    <person id="53" depart="78.60" type="DEFAULT_PEDTYPE">
        <walk from="gneE0" to="gneE3"/>
    </person>
    <person id="54" depart="79.20" type="DEFAULT_PEDTYPE">
        <walk from="gneE1" to="-gneE0"/>
    </person>
    <person id="55" depart="79.20" type="DEFAULT_PEDTYPE">
        <walk from="-gneE0" to="gneE3"/>
    </person>
    <person id="56" depart="79.20" type="DEFAULT_PEDTYPE">
        <walk from="gneE0" to="gneE1"/>
    </person>
    <person id="57" depart="79.40" type="DEFAULT_PEDTYPE">
        <walk from="-gneE0" to="gneE3"/>
    </person>
    <person id="58" depart="81.20" type="DEFAULT_PEDTYPE">
        <walk from="gneE3" to="gneE2"/>
    </person>
    <person id="59" depart="81.20" type="DEFAULT_PEDTYPE">
        <walk from="gneE0" to="-gneE0"/>
    </person>
    <person id="60" depart="84.80" type="DEFAULT_PEDTYPE">
        <walk from="gneE2" to="gneE3"/>
    </person>
    <person id="61" depart="85.20" type="DEFAULT_PEDTYPE">
        <walk from="gneE2" to="gneE0"/>
    </person>
    <person id="62" depart="85.60" type="DEFAULT_PEDTYPE">
        <walk from="-gneE0" to="-gneE0"/>
    </person>
    <person id="63" depart="90.40" type="DEFAULT_PEDTYPE">
        <walk from="gneE1" to="gneE3"/>
    </person>
    <person id="64" depart="90.60" type="DEFAULT_PEDTYPE">
        <walk from="gneE3" to="gneE0"/>
    </person>
    <person id="65" depart="91.00" type="DEFAULT_PEDTYPE">
        <walk from="-gneE0" to="gneE1"/>
    </person>
    <person id="66" depart="93.40" type="DEFAULT_PEDTYPE">
        <walk from="gneE0" to="gneE2"/>
    </person>
    <person id="67" depart="95.20" type="DEFAULT_PEDTYPE">
        <walk from="gneE0" to="gneE3"/>
    </person>
    <person id="68" depart="97.60" type="DEFAULT_PEDTYPE">
        <walk from="-gneE0" to="gneE3"/>
    </person>
    <person id="69" depart="102.00" type="DEFAULT_PEDTYPE">
        <walk from="-gneE0" to="gneE1"/>
    </person>
    <person id="70" depart="104.20" type="DEFAULT_PEDTYPE">
        <walk from="gneE0" to="gneE0"/>
    </person>
    <person id="71" depart="104.80" type="DEFAULT_PEDTYPE">
        <walk from="gneE3" to="gneE0"/>
    </person>
    <person id="72" depart="104.80" type="DEFAULT_PEDTYPE">
        <walk from="-gneE0" to="gneE0"/>
    </person>
    <person id="73" depart="105.40" type="DEFAULT_PEDTYPE">
        <walk from="gneE0" to="gneE2"/>
    </person>
    <person id="74" depart="108.00" type="DEFAULT_PEDTYPE">
        <walk from="gneE3" to="-gneE0"/>
    </person>
    <person id="75" depart="108.20" type="DEFAULT_PEDTYPE">
        <walk from="gneE0" to="gneE2"/>
    </person>
    <person id="76" depart="109.00" type="DEFAULT_PEDTYPE">
        <walk from="-gneE0" to="gneE0"/>
    </person>
    <person id="77" depart="112.40" type="DEFAULT_PEDTYPE">
        <walk from="gneE0" to="gneE3"/>
    </person>
    <person id="78" depart="113.20" type="DEFAULT_PEDTYPE">
        <walk from="gneE3" to="gneE0"/>
    </person>
    <person id="79" depart="113.40" type="DEFAULT_PEDTYPE">
        <walk from="gneE0" to="gneE1"/>
    </person>
    <person id="80" depart="116.20" type="DEFAULT_PEDTYPE">
        <walk from="gneE3" to="-gneE0"/>
    </person>
    <person id="81" depart="118.00" type="DEFAULT_PEDTYPE">
        <walk from="-gneE0" to="-gneE0"/>
    </person>
    <person id="82" depart="119.60" type="DEFAULT_PEDTYPE">
        <walk from="-gneE0" to="gneE3"/>
    </person>
    <person id="83" depart="120.00" type="DEFAULT_PEDTYPE">
        <walk from="-gneE0" to="-gneE0"/>
    </person>
    <person id="84" depart="120.60" type="DEFAULT_PEDTYPE">
        <walk from="-gneE0" to="-gneE0"/>
    </person>
    <person id="85" depart="121.00" type="DEFAULT_PEDTYPE">
        <walk from="-gneE0" to="gneE0"/>
    </person>
    <person id="86" depart="121.20" type="DEFAULT_PEDTYPE">
        <walk from="gneE1" to="gneE1"/>
    </person>
    <person id="87" depart="121.80" type="DEFAULT_PEDTYPE">
        <walk from="gneE0" to="gneE1"/>
    </person>
    <person id="88" depart="123.60" type="DEFAULT_PEDTYPE">
        <walk from="gneE0" to="gneE1"/>
    </person>
    <person id="89" depart="124.60" type="DEFAULT_PEDTYPE">
        <walk from="-gneE0" to="-gneE0"/>
    </person>
    <person id="90" depart="125.00" type="DEFAULT_PEDTYPE">
        <walk from="-gneE0" to="gneE2"/>
    </person>
    <person id="91" depart="125.20" type="DEFAULT_PEDTYPE">
        <walk from="gneE0" to="-gneE0"/>
    </person>
    <person id="92" depart="126.20" type="DEFAULT_PEDTYPE">
        <walk from="-gneE0" to="gneE0"/>
    </person>
    <person id="93" depart="126.40" type="DEFAULT_PEDTYPE">
        <walk from="gneE1" to="gneE0"/>
    </person>
    <person id="94" depart="127.60" type="DEFAULT_PEDTYPE">
        <walk from="gneE2" to="gneE0"/>
    </person>
    <person id="95" depart="129.20" type="DEFAULT_PEDTYPE">
        <walk from="gneE0" to="-gneE0"/>
    </person>
    <person id="96" depart="130.40" type="DEFAULT_PEDTYPE">
        <walk from="gneE3" to="-gneE0"/>
    </person>
    <person id="97" depart="131.40" type="DEFAULT_PEDTYPE">
        <walk from="-gneE0" to="gneE0"/>
    </person>
    <person id="98" depart="136.80" type="DEFAULT_PEDTYPE">
        <walk from="-gneE0" to="gneE2"/>
    </person>
    <person id="99" depart="142.20" type="DEFAULT_PEDTYPE">
        <walk from="-gneE0" to="gneE3"/>
    </person>
    <person id="100" depart="143.40" type="DEFAULT_PEDTYPE">
        <walk from="gneE1" to="gneE0"/>
    </person>
    <person id="101" depart="145.00" type="DEFAULT_PEDTYPE">
        <walk from="gneE0" to="-gneE0"/>
    </person>
    <person id="102" depart="145.60" type="DEFAULT_PEDTYPE">
        <walk from="-gneE0" to="-gneE0"/>
    </person>
    <person id="103" depart="149.20" type="DEFAULT_PEDTYPE">
        <walk from="gneE1" to="gneE1"/>
    </person>
    <person id="104" depart="150.60" type="DEFAULT_PEDTYPE">
        <walk from="gneE0" to="gneE0"/>
    </person>
    <person id="105" depart="151.40" type="DEFAULT_PEDTYPE">
        <walk from="-gneE0" to="gneE3"/>
    </person>
    <person id="106" depart="152.60" type="DEFAULT_PEDTYPE">
        <walk from="gneE3" to="-gneE0"/>
    </person>
    <person id="107" depart="153.40" type="DEFAULT_PEDTYPE">
        <walk from="-gneE0" to="-gneE0"/>
    </person>
    <person id="108" depart="154.80" type="DEFAULT_PEDTYPE">
        <walk from="-gneE0" to="gneE0"/>
    </person>
    <person id="109" depart="159.60" type="DEFAULT_PEDTYPE">
        <walk from="-gneE0" to="-gneE0"/>
    </person>
    <person id="110" depart="161.00" type="DEFAULT_PEDTYPE">
        <walk from="-gneE0" to="gneE1"/>
    </person>
    <person id="111" depart="164.00" type="DEFAULT_PEDTYPE">
        <walk from="gneE0" to="-gneE0"/>
    </person>
    <person id="112" depart="165.00" type="DEFAULT_PEDTYPE">
        <walk from="gneE3" to="gneE3"/>
    </person>
    <person id="113" depart="165.00" type="DEFAULT_PEDTYPE">
        <walk from="gneE0" to="-gneE0"/>
    </person>
    <person id="114" depart="166.40" type="DEFAULT_PEDTYPE">
        <walk from="gneE0" to="gneE2"/>
    </person>
    <person id="115" depart="167.80" type="DEFAULT_PEDTYPE">
        <walk from="gneE0" to="-gneE0"/>
    </person>
    <person id="116" depart="168.00" type="DEFAULT_PEDTYPE">
        <walk from="gneE3" to="gneE0"/>
    </person>
    <person id="117" depart="169.20" type="DEFAULT_PEDTYPE">
        <walk from="-gneE0" to="gneE0"/>
    </person>
    <person id="118" depart="170.20" type="DEFAULT_PEDTYPE">
        <walk from="gneE0" to="gneE0"/>
    </person>
    <person id="119" depart="175.00" type="DEFAULT_PEDTYPE">
        <walk from="gneE1" to="gneE3"/>
    </person>
    <person id="120" depart="175.80" type="DEFAULT_PEDTYPE">
        <walk from="gneE0" to="gneE3"/>
    </person>
    <person id="121" depart="176.40" type="DEFAULT_PEDTYPE">
        <walk from="gneE3" to="gneE0"/>
    </person>
    <person id="122" depart="176.40" type="DEFAULT_PEDTYPE">
        <walk from="-gneE0" to="gneE2"/>
    </person>
    <person id="123" depart="176.60" type="DEFAULT_PEDTYPE">
        <walk from="gneE3" to="gneE2"/>
    </person>
    <person id="124" depart="179.60" type="DEFAULT_PEDTYPE">
        <walk from="-gneE0" to="-gneE0"/>
    </person>
    <person id="125" depart="181.20" type="DEFAULT_PEDTYPE">
        <walk from="gneE3" to="gneE3"/>
    </person>
    <person id="126" depart="182.60" type="DEFAULT_PEDTYPE">
        <walk from="gneE2" to="gneE3"/>
    </person>
    <person id="127" depart="183.20" type="DEFAULT_PEDTYPE">
        <walk from="gneE0" to="-gneE0"/>
    </person>
    <person id="128" depart="185.40" type="DEFAULT_PEDTYPE">
        <walk from="-gneE0" to="-gneE0"/>
    </person>
    <person id="129" depart="186.00" type="DEFAULT_PEDTYPE">
        <walk from="gneE0" to="-gneE0"/>
    </person>
    <person id="130" depart="186.40" type="DEFAULT_PEDTYPE">
        <walk from="gneE0" to="-gneE0"/>
    </person>
    <person id="131" depart="186.60" type="DEFAULT_PEDTYPE">
        <walk from="gneE0" to="gneE0"/>
    </person>
    <person id="132" depart="187.20" type="DEFAULT_PEDTYPE">
        <walk from="gneE3" to="gneE1"/>
    </person>
    <person id="133" depart="189.00" type="DEFAULT_PEDTYPE">
        <walk from="gneE2" to="-gneE0"/>
    </person>
    <person id="134" depart="189.60" type="DEFAULT_PEDTYPE">
        <walk from="gneE0" to="gneE1"/>
    </person>
    <person id="135" depart="189.60" type="DEFAULT_PEDTYPE">
        <walk from="-gneE0" to="-gneE0"/>
    </person>
    <person id="136" depart="189.60" type="DEFAULT_PEDTYPE">
        <walk from="-gneE0" to="gneE1"/>
    </person>
    <person id="137" depart="199.20" type="DEFAULT_PEDTYPE">
        <walk from="-gneE0" to="gneE2"/>
    </person>
    <person id="138" depart="201.20" type="DEFAULT_PEDTYPE">
        <walk from="-gneE0" to="-gneE0"/>
    </person>
    <person id="139" depart="201.80" type="DEFAULT_PEDTYPE">
        <walk from="gneE2" to="gneE1"/>
    </person>
    <person id="140" depart="202.20" type="DEFAULT_PEDTYPE">
        <walk from="gneE0" to="gneE0"/>
    </person>
    <person id="141" depart="202.40" type="DEFAULT_PEDTYPE">
        <walk from="gneE3" to="-gneE0"/>
    </person>
    <person id="142" depart="202.80" type="DEFAULT_PEDTYPE">
        <walk from="-gneE0" to="gneE0"/>
    </person>
    <person id="143" depart="203.60" type="DEFAULT_PEDTYPE">
        <walk from="-gneE0" to="-gneE0"/>
    </person>
    <person id="144" depart="206.00" type="DEFAULT_PEDTYPE">
        <walk from="gneE0" to="gneE0"/>
    </person>
    <person id="145" depart="206.00" type="DEFAULT_PEDTYPE">
        <walk from="gneE0" to="-gneE0"/>
    </person>
    <person id="146" depart="207.80" type="DEFAULT_PEDTYPE">
        <walk from="-gneE0" to="gneE0"/>
    </person>
    <person id="147" depart="210.40" type="DEFAULT_PEDTYPE">
        <walk from="-gneE0" to="gneE0"/>
    </person>
    <person id="148" depart="211.20" type="DEFAULT_PEDTYPE">
        <walk from="gneE0" to="gneE0"/>
    </person>
    <person id="149" depart="211.60" type="DEFAULT_PEDTYPE">
        <walk from="gneE3" to="gneE3"/>
    </person>
    <person id="150" depart="212.20" type="DEFAULT_PEDTYPE">
        <walk from="gneE0" to="gneE0"/>
    </person>
    <person id="151" depart="212.80" type="DEFAULT_PEDTYPE">
        <walk from="gneE0" to="gneE0"/>
    </person>
    <person id="152" depart="216.40" type="DEFAULT_PEDTYPE">
        <walk from="-gneE0" to="gneE3"/>
    </person>
    <person id="153" depart="220.20" type="DEFAULT_PEDTYPE">
        <walk from="gneE3" to="-gneE0"/>
    </person>
    <person id="154" depart="220.60" type="DEFAULT_PEDTYPE">
        <walk from="gneE3" to="gneE0"/>
    </person>
    <person id="155" depart="222.60" type="DEFAULT_PEDTYPE">
        <walk from="gneE3" to="gneE2"/>
    </person>
    <person id="156" depart="223.80" type="DEFAULT_PEDTYPE">
        <walk from="gneE2" to="-gneE0"/>
    </person>
    <person id="157" depart="226.00" type="DEFAULT_PEDTYPE">
        <walk from="gneE2" to="-gneE0"/>
    </person>
    <person id="158" depart="228.00" type="DEFAULT_PEDTYPE">
        <walk from="gneE0" to="gneE3"/>
    </person>
    <person id="159" depart="229.00" type="DEFAULT_PEDTYPE">
        <walk from="gneE0" to="-gneE0"/>
    </person>
    <person id="160" depart="232.20" type="DEFAULT_PEDTYPE">
        <walk from="gneE0" to="gneE0"/>
    </person>
    <person id="161" depart="233.00" type="DEFAULT_PEDTYPE">
        <walk from="gneE2" to="gneE0"/>
    </person>
    <person id="162" depart="235.20" type="DEFAULT_PEDTYPE">
        <walk from="gneE2" to="gneE3"/>
    </person>
    <person id="163" depart="235.20" type="DEFAULT_PEDTYPE">
        <walk from="-gneE0" to="gneE1"/>
    </person>
    <person id="164" depart="236.80" type="DEFAULT_PEDTYPE">
        <walk from="-gneE0" to="gneE0"/>
    </person>
    <person id="165" depart="238.80" type="DEFAULT_PEDTYPE">
        <walk from="gneE3" to="-gneE0"/>
    </person>
    <person id="166" depart="241.60" type="DEFAULT_PEDTYPE">
        <walk from="gneE0" to="-gneE0"/>
    </person>
    <person id="167" depart="241.80" type="DEFAULT_PEDTYPE">
        <walk from="gneE0" to="-gneE0"/>
    </person>
    <person id="168" depart="243.60" type="DEFAULT_PEDTYPE">
        <walk from="gneE2" to="gneE2"/>
    </person>
    <person id="169" depart="244.60" type="DEFAULT_PEDTYPE">
        <walk from="gneE2" to="gneE0"/>
    </person>
    <person id="170" depart="246.60" type="DEFAULT_PEDTYPE">
        <walk from="gneE3" to="gneE0"/>
    </person>
    <person id="171" depart="247.20" type="DEFAULT_PEDTYPE">
        <walk from="gneE3" to="gneE2"/>
    </person>
    <person id="172" depart="248.80" type="DEFAULT_PEDTYPE">
        <walk from="gneE1" to="-gneE0"/>
    </person>
    <person id="173" depart="249.00" type="DEFAULT_PEDTYPE">
        <walk from="-gneE0" to="gneE1"/>
    </person>
    <person id="174" depart="251.40" type="DEFAULT_PEDTYPE">
        <walk from="-gneE0" to="gneE2"/>
    </person>
    <person id="175" depart="252.60" type="DEFAULT_PEDTYPE">
        <walk from="-gneE0" to="-gneE0"/>
    </person>
    <person id="176" depart="253.80" type="DEFAULT_PEDTYPE">
        <walk from="gneE3" to="-gneE0"/>
    </person>
    <person id="177" depart="255.20" type="DEFAULT_PEDTYPE">
        <walk from="gneE2" to="-gneE0"/>
    </person>
    <person id="178" depart="255.40" type="DEFAULT_PEDTYPE">
        <walk from="-gneE0" to="gneE0"/>
    </person>
    <person id="179" depart="257.60" type="DEFAULT_PEDTYPE">
        <walk from="-gneE0" to="-gneE0"/>
    </person>
    <person id="180" depart="257.60" type="DEFAULT_PEDTYPE">
        <walk from="gneE0" to="gneE2"/>
    </person>
    <person id="181" depart="260.20" type="DEFAULT_PEDTYPE">
        <walk from="-gneE0" to="-gneE0"/>
    </person>
    <person id="182" depart="261.00" type="DEFAULT_PEDTYPE">
        <walk from="-gneE0" to="gneE2"/>
    </person>
    <person id="183" depart="262.00" type="DEFAULT_PEDTYPE">
        <walk from="gneE2" to="gneE3"/>
    </person>
    <person id="184" depart="262.00" type="DEFAULT_PEDTYPE">
        <walk from="gneE1" to="gneE2"/>
    </person>
    <person id="185" depart="262.00" type="DEFAULT_PEDTYPE">
        <walk from="-gneE0" to="-gneE0"/>
    </person>
    <person id="186" depart="263.20" type="DEFAULT_PEDTYPE">
        <walk from="gneE0" to="gneE1"/>
    </person>
    <person id="187" depart="264.60" type="DEFAULT_PEDTYPE">
        <walk from="gneE0" to="gneE0"/>
    </person>
    <person id="188" depart="264.80" type="DEFAULT_PEDTYPE">
        <walk from="gneE0" to="-gneE0"/>
    </person>
    <person id="189" depart="266.20" type="DEFAULT_PEDTYPE">
        <walk from="gneE0" to="gneE3"/>
    </person>
    <person id="190" depart="267.00" type="DEFAULT_PEDTYPE">
        <walk from="gneE2" to="gneE0"/>
    </person>
    <person id="191" depart="269.80" type="DEFAULT_PEDTYPE">
        <walk from="-gneE0" to="gneE3"/>
    </person>
    <person id="192" depart="275.40" type="DEFAULT_PEDTYPE">
        <walk from="gneE0" to="gneE3"/>
    </person>
    <person id="193" depart="276.60" type="DEFAULT_PEDTYPE">
        <walk from="-gneE0" to="gneE0"/>
    </person>
    <person id="194" depart="280.00" type="DEFAULT_PEDTYPE">
        <walk from="gneE0" to="-gneE0"/>
    </person>
    <person id="195" depart="282.40" type="DEFAULT_PEDTYPE">
        <walk from="gneE1" to="gneE0"/>
    </person>
    <person id="196" depart="285.00" type="DEFAULT_PEDTYPE">
        <walk from="gneE3" to="gneE0"/>
    </person>
    <person id="197" depart="286.40" type="DEFAULT_PEDTYPE">
        <walk from="gneE0" to="gneE0"/>
    </person>
    <person id="198" depart="290.00" type="DEFAULT_PEDTYPE">
        <walk from="-gneE0" to="gneE0"/>
    </person>
    <person id="199" depart="290.40" type="DEFAULT_PEDTYPE">
        <walk from="gneE3" to="gneE0"/>
    </person>
    <person id="200" depart="292.20" type="DEFAULT_PEDTYPE">
        <walk from="-gneE0" to="-gneE0"/>
    </person>
    <person id="201" depart="292.60" type="DEFAULT_PEDTYPE">
        <walk from="-gneE0" to="-gneE0"/>
    </person>
    <person id="202" depart="292.80" type="DEFAULT_PEDTYPE">
        <walk from="gneE3" to="-gneE0"/>
    </person>
    <person id="203" depart="296.80" type="DEFAULT_PEDTYPE">
        <walk from="gneE3" to="gneE1"/>
    </person>
    <person id="204" depart="298.80" type="DEFAULT_PEDTYPE">
        <walk from="-gneE0" to="gneE0"/>
    </person>
    <person id="205" depart="300.00" type="DEFAULT_PEDTYPE">
        <walk from="gneE3" to="-gneE0"/>
    </person>
    <person id="206" depart="300.80" type="DEFAULT_PEDTYPE">
        <walk from="gneE0" to="gneE3"/>
    </person>
    <person id="207" depart="301.00" type="DEFAULT_PEDTYPE">
        <walk from="gneE0" to="gneE0"/>
    </person>
    <person id="208" depart="302.20" type="DEFAULT_PEDTYPE">
        <walk from="-gneE0" to="-gneE0"/>
    </person>
    <person id="209" depart="304.80" type="DEFAULT_PEDTYPE">
        <walk from="gneE0" to="gneE2"/>
    </person>
    <person id="210" depart="305.40" type="DEFAULT_PEDTYPE">
        <walk from="gneE3" to="gneE3"/>
    </person>
    <person id="211" depart="306.00" type="DEFAULT_PEDTYPE">
        <walk from="gneE0" to="-gneE0"/>
    </person>
    <person id="212" depart="306.80" type="DEFAULT_PEDTYPE">
        <walk from="gneE3" to="gneE0"/>
    </person>
    <person id="213" depart="307.80" type="DEFAULT_PEDTYPE">
        <walk from="gneE0" to="gneE3"/>
    </person>
    <person id="214" depart="307.80" type="DEFAULT_PEDTYPE">
        <walk from="gneE0" to="-gneE0"/>
    </person>
    <person id="215" depart="311.20" type="DEFAULT_PEDTYPE">
        <walk from="gneE0" to="-gneE0"/>
    </person>
    <person id="216" depart="311.80" type="DEFAULT_PEDTYPE">
        <walk from="gneE0" to="gneE0"/>
    </person>
    <person id="217" depart="312.00" type="DEFAULT_PEDTYPE">
        <walk from="-gneE0" to="-gneE0"/>
    </person>
    <person id="218" depart="312.80" type="DEFAULT_PEDTYPE">
        <walk from="-gneE0" to="gneE3"/>
    </person>
    <person id="219" depart="312.80" type="DEFAULT_PEDTYPE">
        <walk from="gneE3" to="-gneE0"/>
    </person>
    <person id="220" depart="313.80" type="DEFAULT_PEDTYPE">
        <walk from="gneE2" to="gneE0"/>
    </person>
    <person id="221" depart="316.40" type="DEFAULT_PEDTYPE">
        <walk from="gneE3" to="gneE2"/>
    </person>
    <person id="222" depart="317.80" type="DEFAULT_PEDTYPE">
        <walk from="-gneE0" to="gneE3"/>
    </person>
    <person id="223" depart="318.80" type="DEFAULT_PEDTYPE">
        <walk from="-gneE0" to="gneE2"/>
    </person>
    <person id="224" depart="318.80" type="DEFAULT_PEDTYPE">
        <walk from="-gneE0" to="-gneE0"/>
    </person>
    <person id="225" depart="320.40" type="DEFAULT_PEDTYPE">
        <walk from="-gneE0" to="-gneE0"/>
    </person>
    <person id="226" depart="320.60" type="DEFAULT_PEDTYPE">
        <walk from="gneE0" to="-gneE0"/>
    </person>
    <person id="227" depart="321.60" type="DEFAULT_PEDTYPE">
        <walk from="-gneE0" to="-gneE0"/>
    </person>
    <person id="228" depart="322.00" type="DEFAULT_PEDTYPE">
        <walk from="gneE2" to="gneE0"/>
    </person>
    <person id="229" depart="322.00" type="DEFAULT_PEDTYPE">
        <walk from="gneE1" to="gneE0"/>
    </person>
    <person id="230" depart="322.20" type="DEFAULT_PEDTYPE">
        <walk from="gneE0" to="-gneE0"/>
    </person>
    <person id="231" depart="323.00" type="DEFAULT_PEDTYPE">
        <walk from="gneE3" to="gneE0"/>
    </person>
    <person id="232" depart="326.60" type="DEFAULT_PEDTYPE">
        <walk from="gneE3" to="gneE0"/>
    </person>
    <person id="233" depart="327.20" type="DEFAULT_PEDTYPE">
        <walk from="-gneE0" to="gneE2"/>
    </person>
    <person id="234" depart="328.60" type="DEFAULT_PEDTYPE">
        <walk from="gneE2" to="gneE0"/>
    </person>
    <person id="235" depart="330.20" type="DEFAULT_PEDTYPE">
        <walk from="gneE0" to="gneE0"/>
    </person>
    <person id="236" depart="331.40" type="DEFAULT_PEDTYPE">
        <walk from="gneE0" to="-gneE0"/>
    </person>
    <person id="237" depart="333.80" type="DEFAULT_PEDTYPE">
        <walk from="gneE0" to="gneE1"/>
    </person>
    <person id="238" depart="336.60" type="DEFAULT_PEDTYPE">
        <walk from="-gneE0" to="gneE1"/>
    </person>
    <person id="239" depart="337.20" type="DEFAULT_PEDTYPE">
        <walk from="-gneE0" to="gneE1"/>
    </person>
    <person id="240" depart="338.60" type="DEFAULT_PEDTYPE">
        <walk from="gneE0" to="-gneE0"/>
    </person>
    <person id="241" depart="339.80" type="DEFAULT_PEDTYPE">
        <walk from="gneE1" to="-gneE0"/>
    </person>
    <person id="242" depart="340.20" type="DEFAULT_PEDTYPE">
        <walk from="-gneE0" to="gneE2"/>
    </person>
    <person id="243" depart="341.00" type="DEFAULT_PEDTYPE">
        <walk from="-gneE0" to="-gneE0"/>
    </person>
    <person id="244" depart="341.40" type="DEFAULT_PEDTYPE">
        <walk from="-gneE0" to="gneE0"/>
    </person>
    <person id="245" depart="343.60" type="DEFAULT_PEDTYPE">
        <walk from="-gneE0" to="gneE3"/>
    </person>
    <person id="246" depart="344.60" type="DEFAULT_PEDTYPE">
        <walk from="gneE2" to="gneE0"/>
    </person>
    <person id="247" depart="344.80" type="DEFAULT_PEDTYPE">
        <walk from="-gneE0" to="-gneE0"/>
    </person>
    <person id="248" depart="345.20" type="DEFAULT_PEDTYPE">
        <walk from="-gneE0" to="gneE3"/>
    </person>
    <person id="249" depart="345.80" type="DEFAULT_PEDTYPE">
        <walk from="-gneE0" to="-gneE0"/>
    </person>
    <person id="250" depart="345.80" type="DEFAULT_PEDTYPE">
        <walk from="gneE3" to="gneE2"/>
    </person>
    <person id="251" depart="348.20" type="DEFAULT_PEDTYPE">
        <walk from="-gneE0" to="gneE3"/>
    </person>
    <person id="252" depart="348.60" type="DEFAULT_PEDTYPE">
        <walk from="gneE2" to="-gneE0"/>
    </person>
    <person id="253" depart="351.00" type="DEFAULT_PEDTYPE">
        <walk from="gneE0" to="gneE0"/>
    </person>
    <person id="254" depart="358.00" type="DEFAULT_PEDTYPE">