<?xml version="1.0" encoding="UTF-8"?>

<!-- generated on Thu Apr  6 18:38:36 2023 by Eclipse SUMO duarouter Version 1.8.0
<configuration xmlns:xsi="http://www.w3.org/2001/XMLSchema-instance" xsi:noNamespaceSchemaLocation="http://sumo.dlr.de/xsd/duarouterConfiguration.xsd">

    <input>
        <net-file value="/home/toore/Tirocinio_SUMO/Scenario/scenario_per_tesi/2023-03-31-10-37-43/osm.net.xml"/>
        <route-files value="trips.trips.xml"/>
    </input>

    <output>
        <output-file value="peds.rou.xml"/>
        <alternatives-output value="NUL"/>
    </output>

    <time>
        <begin value="0"/>
        <end value="1000"/>
    </time>

    <report>
        <no-warnings value="true"/>
        <ignore-errors value="true"/>
        <no-step-log value="true"/>
    </report>

</configuration>
-->

<routes xmlns:xsi="http://www.w3.org/2001/XMLSchema-instance" xsi:noNamespaceSchemaLocation="http://sumo.dlr.de/xsd/routes_file.xsd">
    <person id="0" type="DEFAULT_PEDTYPE" depart="0.60">
        <personTrip from="28709110" to="23195801" walkFactor="0.75" costs="401.35"/>
    </person>
    <person id="1" type="DEFAULT_PEDTYPE" depart="2.20">
        <personTrip from="998769532" to="-522833746" walkFactor="0.75" costs="248.89"/>
    </person>
    <person id="2" type="DEFAULT_PEDTYPE" depart="3.20">
        <personTrip from="28709107#0" to="995252087#1" walkFactor="0.75" costs="162.19"/>
    </person>
    <person id="3" type="DEFAULT_PEDTYPE" depart="3.40">
        <personTrip from="28710934" to="-23195751#0" walkFactor="0.75" costs="528.64"/>
    </person>
    <person id="4" type="DEFAULT_PEDTYPE" depart="4.60">
        <personTrip from="191871225#0" to="996144773" walkFactor="0.75" costs="364.03"/>
    </person>
    <person id="5" type="DEFAULT_PEDTYPE" depart="5.40">
        <personTrip from="-28718922#1" to="191979123#1" walkFactor="0.75" costs="191.03"/>
    </person>
    <person id="6" type="DEFAULT_PEDTYPE" depart="6.20">
        <personTrip from="184427426#1" to="23195752#1" walkFactor="0.75" costs="618.00"/>
    </person>
    <person id="7" type="DEFAULT_PEDTYPE" depart="7.20">
        <personTrip from="545476129#5" to="184427434#0" walkFactor="0.75" costs="75.77"/>
    </person>
    <person id="8" type="DEFAULT_PEDTYPE" depart="9.40">
        <personTrip from="995252087#1" to="23195801" walkFactor="0.75" costs="307.85"/>
    </person>
    <person id="9" type="DEFAULT_PEDTYPE" depart="11.00">
        <personTrip from="-32062050#0" to="23196319" walkFactor="0.75" costs="391.62"/>
    </person>
    <person id="10" type="DEFAULT_PEDTYPE" depart="11.80">
        <personTrip from="-322548792#1" to="545476129#5" walkFactor="0.75" costs="484.20"/>
    </person>
    <person id="11" type="DEFAULT_PEDTYPE" depart="13.20">
        <personTrip from="655717643" to="545476129#5" walkFactor="0.75" costs="80.15"/>
    </person>
    <person id="12" type="DEFAULT_PEDTYPE" depart="13.60">
        <personTrip from="28710621#2" to="-522833753" walkFactor="0.75" costs="449.28"/>
    </person>
    <person id="13" type="DEFAULT_PEDTYPE" depart="14.60">
        <personTrip from="28710621#0" to="23195798" walkFactor="0.75" costs="861.14"/>
    </person>
    <person id="14" type="DEFAULT_PEDTYPE" depart="14.80">
        <personTrip from="647789892" to="-522833746" walkFactor="0.75" costs="259.69"/>
    </person>
    <person id="15" type="DEFAULT_PEDTYPE" depart="14.80">
        <personTrip from="522833719" to="539483278" walkFactor="0.75" costs="411.33"/>
    </person>
    <person id="16" type="DEFAULT_PEDTYPE" depart="15.40">
        <personTrip from="190606073" to="28710621#1" walkFactor="0.75" costs="698.31"/>
    </person>
    <person id="17" type="DEFAULT_PEDTYPE" depart="16.40">
        <personTrip from="23195501#1" to="998769531" walkFactor="0.75" costs="93.73"/>
    </person>
    <person id="18" type="DEFAULT_PEDTYPE" depart="22.00">
        <personTrip from="-23195751#0" to="23195792#0" walkFactor="0.75" costs="534.01"/>
    </person>
    <person id="19" type="DEFAULT_PEDTYPE" depart="25.60">
        <personTrip from="996364918" to="191959712#0" walkFactor="0.75" costs="167.82"/>
    </person>
    <person id="20" type="DEFAULT_PEDTYPE" depart="26.00">
        <personTrip from="655693841" to="996022769#1" walkFactor="0.75" costs="374.30"/>
    </person>
    <person id="21" type="DEFAULT_PEDTYPE" depart="27.80">
        <personTrip from="190606085" to="28998662#3" walkFactor="0.75" costs="218.24"/>
    </person>
    <person id="22" type="DEFAULT_PEDTYPE" depart="28.00">
        <personTrip from="28999595#1" to="-322548792#1" walkFactor="0.75" costs="305.09"/>
    </person>
    <person id="23" type="DEFAULT_PEDTYPE" depart="28.60">
        <personTrip from="-32062050#0" to="1132162846" walkFactor="0.75" costs="237.63"/>
    </person>
    <person id="24" type="DEFAULT_PEDTYPE" depart="29.20">
        <personTrip from="29241566" to="28708932" walkFactor="0.75" costs="188.24"/>
    </person>
    <person id="25" type="DEFAULT_PEDTYPE" depart="29.40">
        <personTrip from="192464423" to="-522833721" walkFactor="0.75" costs="287.64"/>
    </person>
    <person id="26" type="DEFAULT_PEDTYPE" depart="30.00">
        <personTrip from="-191979123#0" to="-28718922#1" walkFactor="0.75" costs="189.11"/>
    </person>
    <person id="27" type="DEFAULT_PEDTYPE" depart="30.40">
        <personTrip from="190606078#1" to="23195328#2" walkFactor="0.75" costs="351.54"/>
    </person>
    <person id="28" type="DEFAULT_PEDTYPE" depart="30.60">
        <personTrip from="-998769537" to="397927055#0" walkFactor="0.75" costs="274.21"/>
    </person>
    <person id="29" type="DEFAULT_PEDTYPE" depart="30.80">
        <personTrip from="-191987469#1" to="1132162846" walkFactor="0.75" costs="234.98"/>
    </person>
    <person id="31" type="DEFAULT_PEDTYPE" depart="34.40">
        <personTrip from="23195794#1" to="23195794#0" walkFactor="0.75" costs="117.51"/>
    </person>
    <person id="32" type="DEFAULT_PEDTYPE" depart="34.60">
        <personTrip from="539419144" to="522833719" walkFactor="0.75" costs="322.14"/>
    </person>
    <person id="33" type="DEFAULT_PEDTYPE" depart="34.60">
        <personTrip from="192464423" to="23195503" walkFactor="0.75" costs="362.97"/>
    </person>
    <person id="34" type="DEFAULT_PEDTYPE" depart="38.20">
        <personTrip from="998798218" to="1144160277" walkFactor="0.75" costs="265.14"/>
    </person>
    <person id="35" type="DEFAULT_PEDTYPE" depart="38.60">
        <personTrip from="388909094" to="28999595#1" walkFactor="0.75" costs="26.66"/>
    </person>
    <person id="36" type="DEFAULT_PEDTYPE" depart="39.20">
        <personTrip from="23195800" to="1144160275#0" walkFactor="0.75" costs="90.02"/>
    </person>
    <person id="37" type="DEFAULT_PEDTYPE" depart="42.00">
        <personTrip from="452767836#1" to="996144772#1" walkFactor="0.75" costs="174.42"/>
    </person>
    <person id="38" type="DEFAULT_PEDTYPE" depart="46.80">
        <personTrip from="28710621#0" to="29072597#1" walkFactor="0.75" costs="896.79"/>
    </person>
    <person id="39" type="DEFAULT_PEDTYPE" depart="47.40">
        <personTrip from="29072597#1" to="23195328#2" walkFactor="0.75" costs="318.05"/>
    </person>
    <person id="40" type="DEFAULT_PEDTYPE" depart="49.60">
        <personTrip from="23683441#1" to="23195751#1" walkFactor="0.75" costs="341.56"/>
    </person>
    <person id="41" type="DEFAULT_PEDTYPE" depart="50.60">
        <personTrip from="23195499#1" to="-28710790" walkFactor="0.75" costs="398.81"/>
    </person>
    <person id="42" type="DEFAULT_PEDTYPE" depart="51.20">
        <personTrip from="28710410" to="23195794#1" walkFactor="0.75" costs="322.40"/>
    </person>
    <person id="43" type="DEFAULT_PEDTYPE" depart="51.80">
        <personTrip from="28710621#2" to="184427426#3" walkFactor="0.75" costs="643.22"/>
    </person>
    <person id="44" type="DEFAULT_PEDTYPE" depart="51.80">
        <personTrip from="322548792#1" to="23195736" walkFactor="0.75" costs="628.06"/>
    </person>
    <person id="45" type="DEFAULT_PEDTYPE" depart="53.40">
        <personTrip from="-522833753" to="1149437440" walkFactor="0.75" costs="235.67"/>
    </person>
    <person id="46" type="DEFAULT_PEDTYPE" depart="53.60">
        <personTrip from="23196319" to="23195801" walkFactor="0.75" costs="239.48"/>
    </person>
    <person id="47" type="DEFAULT_PEDTYPE" depart="54.20">
        <personTrip from="28710621#0" to="28998663#0" walkFactor="0.75" costs="667.77"/>
    </person>
    <person id="48" type="DEFAULT_PEDTYPE" depart="54.20">
        <personTrip from="522833750#1" to="996022769#1" walkFactor="0.75" costs="309.20"/>
    </person>
    <person id="49" type="DEFAULT_PEDTYPE" depart="55.00">
        <personTrip from="28710410" to="661212190" walkFactor="0.75" costs="490.46"/>
    </person>
    <person id="50" type="DEFAULT_PEDTYPE" depart="55.40">
        <personTrip from="997944679" to="545476129#5" walkFactor="0.75" costs="608.54"/>
    </person>
    <person id="51" type="DEFAULT_PEDTYPE" depart="57.60">
        <personTrip from="123592772#2" to="23195499#1" walkFactor="0.75" costs="123.52"/>
    </person>
    <person id="52" type="DEFAULT_PEDTYPE" depart="59.80">
        <personTrip from="-191959706#1" to="-167113237" walkFactor="0.75" costs="253.17"/>
    </person>
    <person id="53" type="DEFAULT_PEDTYPE" depart="60.00">
        <personTrip from="29072597#1" to="655693841" walkFactor="0.75" costs="342.77"/>
    </person>
    <person id="54" type="DEFAULT_PEDTYPE" depart="64.00">
        <personTrip from="28710621#1" to="-522833738" walkFactor="0.75" costs="391.55"/>
    </person>
    <person id="55" type="DEFAULT_PEDTYPE" depart="65.40">
        <personTrip from="28999595#1" to="28710410" walkFactor="0.75" costs="305.09"/>
    </person>
    <person id="56" type="DEFAULT_PEDTYPE" depart="66.60">
        <personTrip from="1149942855" to="32062050#1" walkFactor="0.75" costs="402.68"/>
    </person>
    <person id="58" type="DEFAULT_PEDTYPE" depart="67.60">
        <personTrip from="193099645#0" to="190606073" walkFactor="0.75" costs="550.66"/>
    </person>
    <person id="59" type="DEFAULT_PEDTYPE" depart="67.60">
        <personTrip from="458676577#2" to="1132162842#0" walkFactor="0.75" costs="121.30"/>
    </person>
    <person id="60" type="DEFAULT_PEDTYPE" depart="67.80">
        <personTrip from="655717640#1" to="23195803#2" walkFactor="0.75" costs="370.42"/>
    </person>
    <person id="61" type="DEFAULT_PEDTYPE" depart="68.20">
        <personTrip from="-322548792#1" to="522833732#1" walkFactor="0.75" costs="263.04"/>
    </person>
    <person id="62" type="DEFAULT_PEDTYPE" depart="68.20">
        <personTrip from="193099645#0" to="1149942855" walkFactor="0.75" costs="550.19"/>
    </person>
    <person id="63" type="DEFAULT_PEDTYPE" depart="70.20">
        <personTrip from="655693841" to="23195752#1" walkFactor="0.75" costs="393.14"/>
    </person>
    <person id="64" type="DEFAULT_PEDTYPE" depart="72.20">
        <personTrip from="29033735" to="23195752#1" walkFactor="0.75" costs="564.37"/>
    </person>
    <person id="65" type="DEFAULT_PEDTYPE" depart="73.00">
        <personTrip from="-522833753" to="193099645#0" walkFactor="0.75" costs="554.48"/>
    </person>
    <person id="66" type="DEFAULT_PEDTYPE" depart="74.40">
        <personTrip from="-185271779#3" to="23196319" walkFactor="0.75" costs="132.70"/>
    </person>
    <person id="67" type="DEFAULT_PEDTYPE" depart="74.40">
        <personTrip from="539483270" to="123592772#2" walkFactor="0.75" costs="68.82"/>
    </person>
    <person id="68" type="DEFAULT_PEDTYPE" depart="75.00">
        <personTrip from="-184427426#0" to="190606078#1" walkFactor="0.75" costs="96.58"/>
    </person>
    <person id="69" type="DEFAULT_PEDTYPE" depart="76.00">
        <personTrip from="23195755#0" to="1002422788#1" walkFactor="0.75" costs="275.32"/>
    </person>
    <person id="70" type="DEFAULT_PEDTYPE" depart="77.60">
        <personTrip from="28710621#0" to="191979127#0" walkFactor="0.75" costs="462.66"/>
    </person>
    <person id="71" type="DEFAULT_PEDTYPE" depart="77.80">
        <personTrip from="28710934" to="23195793" walkFactor="0.75" costs="680.06"/>
    </person>
    <person id="72" type="DEFAULT_PEDTYPE" depart="78.00">
        <personTrip from="191871225#0" to="1149942834#1" walkFactor="0.75" costs="377.19"/>
    </person>
    <person id="73" type="DEFAULT_PEDTYPE" depart="79.60">
        <personTrip from="192464423" to="995252087#1" walkFactor="0.75" costs="251.54"/>
    </person>
    <person id="74" type="DEFAULT_PEDTYPE" depart="80.00">
        <personTrip from="-397927055#0" to="28710621#0" walkFactor="0.75" costs="832.57"/>
    </person>
    <person id="75" type="DEFAULT_PEDTYPE" depart="81.00">
        <personTrip from="28710621#3" to="539483273" walkFactor="0.75" costs="662.56"/>
    </person>
    <person id="76" type="DEFAULT_PEDTYPE" depart="81.00">
        <personTrip from="28998662#3" to="485720694" walkFactor="0.75" costs="217.62"/>
    </person>
    <person id="77" type="DEFAULT_PEDTYPE" depart="86.60">
        <personTrip from="485720694" to="-322548792#1" walkFactor="0.75" costs="488.67"/>
    </person>
    <person id="78" type="DEFAULT_PEDTYPE" depart="88.00">
        <personTrip from="1149942855" to="193099645#0" walkFactor="0.75" costs="550.19"/>
    </person>
    <person id="79" type="DEFAULT_PEDTYPE" depart="92.00">
        <personTrip from="191959706#0" to="23195794#1" walkFactor="0.75" costs="338.17"/>
    </person>
    <person id="80" type="DEFAULT_PEDTYPE" depart="92.80">
        <personTrip from="474164620#0" to="23195752#0" walkFactor="0.75" costs="535.06"/>
    </person>
    <person id="81" type="DEFAULT_PEDTYPE" depart="93.00">
        <personTrip from="23195499#1" to="655717649#4" walkFactor="0.75" costs="192.84"/>
    </person>
    <person id="82" type="DEFAULT_PEDTYPE" depart="93.60">
        <personTrip from="-322548792#3" to="587561458" walkFactor="0.75" costs="473.49"/>
    </person>
    <person id="83" type="DEFAULT_PEDTYPE" depart="95.00">
        <personTrip from="1001467661" to="28710621#0" walkFactor="0.75" costs="549.51"/>
    </person>
    <person id="84" type="DEFAULT_PEDTYPE" depart="95.80">
        <personTrip from="539419136" to="996022769#1" walkFactor="0.75" costs="477.59"/>
    </person>
    <person id="85" type="DEFAULT_PEDTYPE" depart="97.40">
        <personTrip from="23195754#4" to="28709110" walkFactor="0.75" costs="141.22"/>
    </person>
    <person id="86" type="DEFAULT_PEDTYPE" depart="98.20">
        <personTrip from="28717086" to="193099645#1" walkFactor="0.75" costs="289.64"/>
    </person>
    <person id="87" type="DEFAULT_PEDTYPE" depart="98.80">
        <personTrip from="539419138" to="23195792#0" walkFactor="0.75" costs="240.73"/>
    </person>
    <person id="88" type="DEFAULT_PEDTYPE" depart="98.80">
        <personTrip from="474164620#2" to="1144160275#1" walkFactor="0.75" costs="268.62"/>
    </person>
    <person id="89" type="DEFAULT_PEDTYPE" depart="104.80">
        <personTrip from="998769532" to="123592772#2" walkFactor="0.75" costs="221.36"/>
    </person>
    <person id="90" type="DEFAULT_PEDTYPE" depart="105.20">
        <personTrip from="28709110" to="28708934#1" walkFactor="0.75" costs="281.68"/>
    </person>
    <person id="91" type="DEFAULT_PEDTYPE" depart="105.80">
        <personTrip from="190606085" to="-522833746" walkFactor="0.75" costs="252.45"/>
    </person>
    <person id="92" type="DEFAULT_PEDTYPE" depart="105.80">
        <personTrip from="190606073" to="1001467661" walkFactor="0.75" costs="372.63"/>
    </person>
    <person id="93" type="DEFAULT_PEDTYPE" depart="109.80">
        <personTrip from="23195804#0" to="23195798" walkFactor="0.75" costs="545.96"/>
    </person>
    <person id="94" type="DEFAULT_PEDTYPE" depart="110.40">
        <personTrip from="-1144028925" to="23195792#0" walkFactor="0.75" costs="101.44"/>
    </person>
    <person id="95" type="DEFAULT_PEDTYPE" depart="111.60">
        <personTrip from="-485720694" to="-998769537" walkFactor="0.75" costs="261.58"/>
    </person>
    <person id="96" type="DEFAULT_PEDTYPE" depart="114.20">
        <personTrip from="-522833720#0" to="190606077#0" walkFactor="0.75" costs="314.98"/>
    </person>
    <person id="98" type="DEFAULT_PEDTYPE" depart="118.00">
        <personTrip from="190606078#1" to="23195799#0" walkFactor="0.75" costs="117.58"/>
    </person>
    <person id="99" type="DEFAULT_PEDTYPE" depart="118.40">
        <personTrip from="184427426#1" to="1132162842#0" walkFactor="0.75" costs="291.57"/>
    </person>
    <person id="100" type="DEFAULT_PEDTYPE" depart="119.00">
        <personTrip from="1132162842#0" to="461160629" walkFactor="0.75" costs="213.36"/>
    </person>
    <person id="101" type="DEFAULT_PEDTYPE" depart="119.60">
        <personTrip from="23195800" to="655717644#1" walkFactor="0.75" costs="180.91"/>
    </person>
    <person id="102" type="DEFAULT_PEDTYPE" depart="120.40">
        <personTrip from="-32062050#0" to="539419147#1" walkFactor="0.75" costs="102.41"/>
    </person>
    <person id="103" type="DEFAULT_PEDTYPE" depart="122.40">
        <personTrip from="539419146#1" to="998769535#0" walkFactor="0.75" costs="317.61"/>
    </person>
    <person id="104" type="DEFAULT_PEDTYPE" depart="134.40">
        <personTrip from="-184427426#3" to="29241566" walkFactor="0.75" costs="181.93"/>
    </person>
    <person id="105" type="DEFAULT_PEDTYPE" depart="136.60">
        <personTrip from="998769535#0" to="461160629" walkFactor="0.75" costs="244.66"/>
    </person>
    <person id="106" type="DEFAULT_PEDTYPE" depart="136.80">
        <personTrip from="996364918" to="191959714" walkFactor="0.75" costs="146.88"/>
    </person>
    <person id="107" type="DEFAULT_PEDTYPE" depart="138.20">
        <personTrip from="23195794#0" to="655693839" walkFactor="0.75" costs="68.84"/>
    </person>
    <person id="108" type="DEFAULT_PEDTYPE" depart="138.40">
        <personTrip from="28709110" to="28709110" walkFactor="0.75" costs="0.00"/>
    </person>
    <person id="109" type="DEFAULT_PEDTYPE" depart="139.60">
        <personTrip from="-998769537" to="23195499#1" walkFactor="0.75" costs="107.42"/>
    </person>
    <person id="110" type="DEFAULT_PEDTYPE" depart="140.00">
        <personTrip from="996022767" to="28708932" walkFactor="0.75" costs="254.35"/>
    </person>
    <person id="111" type="DEFAULT_PEDTYPE" depart="140.40">
        <personTrip from="191979127#0" to="322548792#1" walkFactor="0.75" costs="349.54"/>
    </person>
    <person id="112" type="DEFAULT_PEDTYPE" depart="141.20">
        <personTrip from="-29072597#1" to="23195755#0" walkFactor="0.75" costs="529.60"/>
    </person>
    <person id="113" type="DEFAULT_PEDTYPE" depart="142.60">
        <personTrip from="28718922#1" to="28710621#0" walkFactor="0.75" costs="648.99"/>
    </person>
    <person id="114" type="DEFAULT_PEDTYPE" depart="145.00">
        <personTrip from="191979127#3" to="1144160277" walkFactor="0.75" costs="122.34"/>
    </person>
    <person id="115" type="DEFAULT_PEDTYPE" depart="145.80">
        <personTrip from="23195749#1" to="23195803#2" walkFactor="0.75" costs="176.72"/>
    </person>
    <person id="116" type="DEFAULT_PEDTYPE" depart="147.20">
        <personTrip from="998769536#1" to="655693841" walkFactor="0.75" costs="180.80"/>
    </person>
    <person id="117" type="DEFAULT_PEDTYPE" depart="151.40">
        <personTrip from="1144160275#1" to="1000553425" walkFactor="0.75" costs="147.11"/>
    </person>
    <person id="118" type="DEFAULT_PEDTYPE" depart="154.60">
        <personTrip from="23195792#0" to="23195792#0" walkFactor="0.75" costs="0.00"/>
    </person>
    <person id="119" type="DEFAULT_PEDTYPE" depart="155.60">
        <personTrip from="-184427426#4" to="322548792#1" walkFactor="0.75" costs="662.47"/>
    </person>
    <person id="120" type="DEFAULT_PEDTYPE" depart="155.60">
        <personTrip from="28709110" to="23195755#0" walkFactor="0.75" costs="125.77"/>
    </person>
    <person id="121" type="DEFAULT_PEDTYPE" depart="158.40">
        <personTrip from="23195499#2" to="23195800" walkFactor="0.75" costs="242.95"/>
    </person>
    <person id="122" type="DEFAULT_PEDTYPE" depart="160.80">
        <personTrip from="23195501#1" to="23195795" walkFactor="0.75" costs="200.74"/>
    </person>
    <person id="123" type="DEFAULT_PEDTYPE" depart="161.00">
        <personTrip from="190606073" to="655717643" walkFactor="0.75" costs="154.67"/>
    </person>
    <person id="124" type="DEFAULT_PEDTYPE" depart="164.00">
        <personTrip from="-23195496" to="539419137#1" walkFactor="0.75" costs="71.37"/>
    </person>
    <person id="125" type="DEFAULT_PEDTYPE" depart="165.20">
        <personTrip from="-998769537" to="23195503" walkFactor="0.75" costs="138.03"/>
    </person>
    <person id="126" type="DEFAULT_PEDTYPE" depart="166.60">
        <personTrip from="23195499#1" to="191959704#1" walkFactor="0.75" costs="325.37"/>
    </person>
    <person id="127" type="DEFAULT_PEDTYPE" depart="166.80">
        <personTrip from="23195792#0" to="28710755#2" walkFactor="0.75" costs="443.78"/>
    </person>
    <person id="128" type="DEFAULT_PEDTYPE" depart="169.00">
        <personTrip from="23195501#1" to="190606077#5" walkFactor="0.75" costs="310.79"/>
    </person>
    <person id="129" type="DEFAULT_PEDTYPE" depart="170.20">
        <personTrip from="539419146#1" to="-32062050#0" walkFactor="0.75" costs="102.41"/>
    </person>
    <person id="130" type="DEFAULT_PEDTYPE" depart="171.00">
        <personTrip from="998769531" to="998769533" walkFactor="0.75" costs="0.00"/>
    </person>
    <person id="131" type="DEFAULT_PEDTYPE" depart="171.80">
        <personTrip from="23195499#1" to="54704028#1" walkFactor="0.75" costs="177.67"/>
    </person>
    <person id="132" type="DEFAULT_PEDTYPE" depart="174.00">
        <personTrip from="123592772#2" to="28999595#1" walkFactor="0.75" costs="123.17"/>
    </person>
    <person id="133" type="DEFAULT_PEDTYPE" depart="175.40">
        <personTrip from="-322548792#2" to="23195755#0" walkFactor="0.75" costs="25.23"/>
    </person>
    <person id="134" type="DEFAULT_PEDTYPE" depart="177.40">
        <personTrip from="1149942855" to="28710755#2" walkFactor="0.75" costs="225.71"/>
    </person>
    <person id="135" type="DEFAULT_PEDTYPE" depart="178.80">
        <personTrip from="1149634794#1" to="-28710755#0" walkFactor="0.75" costs="301.51"/>
    </person>
    <person id="136" type="DEFAULT_PEDTYPE" depart="180.00">
        <personTrip from="28999595#1" to="23195336#1" walkFactor="0.75" costs="155.31"/>
    </person>
    <person id="137" type="DEFAULT_PEDTYPE" depart="181.80">
        <personTrip from="1149437440" to="-23195496" walkFactor="0.75" costs="269.99"/>
    </person>
    <person id="138" type="DEFAULT_PEDTYPE" depart="182.60">
        <personTrip from="185271779#4" to="28710621#1" walkFactor="0.75" costs="421.27"/>
    </person>
    <person id="139" type="DEFAULT_PEDTYPE" depart="182.60">
        <personTrip from="1002422788#1" to="522833752#1" walkFactor="0.75" costs="166.38"/>
    </person>
    <person id="140" type="DEFAULT_PEDTYPE" depart="183.80">
        <personTrip from="191987465#0" to="995252087#1" walkFactor="0.75" costs="358.83"/>
    </person>
    <person id="141" type="DEFAULT_PEDTYPE" depart="185.40">
        <personTrip from="23195800" to="996022767" walkFactor="0.75" costs="267.60"/>
    </person>
    <person id="142" type="DEFAULT_PEDTYPE" depart="185.60">
        <personTrip from="-191959706#0" to="23195795" walkFactor="0.75" costs="491.87"/>
    </person>
    <person id="143" type="DEFAULT_PEDTYPE" depart="187.20">
        <personTrip from="-522833721" to="184427426#3" walkFactor="0.75" costs="464.59"/>
    </person>
    <person id="144" type="DEFAULT_PEDTYPE" depart="187.20">
        <personTrip from="539419138" to="-23195496" walkFactor="0.75" costs="126.39"/>
    </person>
    <person id="145" type="DEFAULT_PEDTYPE" depart="189.00">
        <personTrip from="23195793" to="545477613#1" walkFactor="0.75" costs="301.45"/>
    </person>
    <person id="146" type="DEFAULT_PEDTYPE" depart="192.60">
        <personTrip from="-28710755#2" to="28710621#0" walkFactor="0.75" costs="326.08"/>
    </person>
    <person id="147" type="DEFAULT_PEDTYPE" depart="195.80">
        <personTrip from="23195793" to="-184427426#4" walkFactor="0.75" costs="443.00"/>
    </person>
    <person id="148" type="DEFAULT_PEDTYPE" depart="196.00">
        <personTrip from="522833721" to="23195794#0" walkFactor="0.75" costs="316.91"/>
    </person>
    <person id="149" type="DEFAULT_PEDTYPE" depart="197.00">
        <personTrip from="1144028925" to="23195751#0" walkFactor="0.75" costs="652.94"/>
    </person>
    <person id="150" type="DEFAULT_PEDTYPE" depart="197.60">
        <personTrip from="655717649#6" to="23195798" walkFactor="0.75" costs="133.96"/>
    </person>
    <person id="151" type="DEFAULT_PEDTYPE" depart="197.80">
        <personTrip from="190606077#0" to="23195801" walkFactor="0.75" costs="305.48"/>
    </person>
    <person id="152" type="DEFAULT_PEDTYPE" depart="200.00">
        <personTrip from="461160629" to="998769532" walkFactor="0.75" costs="263.73"/>
    </person>
    <person id="153" type="DEFAULT_PEDTYPE" depart="200.20">
        <personTrip from="23195800" to="29033731" walkFactor="0.75" costs="308.92"/>
    </person>
    <person id="154" type="DEFAULT_PEDTYPE" depart="200.40">
        <personTrip from="192464423" to="29033732" walkFactor="0.75" costs="436.27"/>
    </person>
    <person id="155" type="DEFAULT_PEDTYPE" depart="201.60">
        <personTrip from="29241566" to="23195792#0" walkFactor="0.75" costs="255.02"/>
    </person>
    <person id="156" type="DEFAULT_PEDTYPE" depart="202.20">
        <personTrip from="322548792#1" to="23195755#0" walkFactor="0.75" costs="154.15"/>
    </person>
    <person id="157" type="DEFAULT_PEDTYPE" depart="208.60">
        <personTrip from="28710621#0" to="452767836#1" walkFactor="0.75" costs="500.51"/>
    </person>
    <person id="158" type="DEFAULT_PEDTYPE" depart="209.00">
        <personTrip from="-522833752#1" to="23195799#0" walkFactor="0.75" costs="179.17"/>
    </person>
    <person id="159" type="DEFAULT_PEDTYPE" depart="210.60">
        <personTrip from="-28710790" to="29033732" walkFactor="0.75" costs="517.93"/>
    </person>
    <person id="160" type="DEFAULT_PEDTYPE" depart="213.20">
        <personTrip from="184427426#3" to="-167113237" walkFactor="0.75" costs="392.39"/>
    </person>
    <person id="161" type="DEFAULT_PEDTYPE" depart="214.60">
        <personTrip from="998769540#1" to="23195792#0" walkFactor="0.75" costs="214.97"/>
    </person>
    <person id="162" type="DEFAULT_PEDTYPE" depart="215.80">
        <personTrip from="655717644#1" to="192464423" walkFactor="0.75" costs="463.24"/>
    </person>
    <person id="163" type="DEFAULT_PEDTYPE" depart="216.00">
        <personTrip from="28710621#1" to="-191959714" walkFactor="0.75" costs="256.49"/>
    </person>
    <person id="164" type="DEFAULT_PEDTYPE" depart="216.60">
        <personTrip from="29241566" to="1149437440" walkFactor="0.75" costs="209.89"/>
    </person>
    <person id="165" type="DEFAULT_PEDTYPE" depart="218.40">
        <personTrip from="998769540#1" to="1144160277" walkFactor="0.75" costs="234.32"/>
    </person>
    <person id="166" type="DEFAULT_PEDTYPE" depart="220.40">
        <personTrip from="193099645#0" to="28710621#2" walkFactor="0.75" costs="589.78"/>
    </person>
    <person id="167" type="DEFAULT_PEDTYPE" depart="221.20">
        <personTrip from="28710621#3" to="584987256" walkFactor="0.75" costs="400.96"/>
    </person>
    <person id="168" type="DEFAULT_PEDTYPE" depart="221.80">
        <personTrip from="28710621#1" to="-522833746" walkFactor="0.75" costs="590.77"/>
    </person>
    <person id="169" type="DEFAULT_PEDTYPE" depart="224.00">
        <personTrip from="184427434#0" to="23195804#0" walkFactor="0.75" costs="450.30"/>
    </person>
    <person id="170" type="DEFAULT_PEDTYPE" depart="229.40">
        <personTrip from="184427434#0" to="655717644#1" walkFactor="0.75" costs="80.06"/>
    </person>
    <person id="171" type="DEFAULT_PEDTYPE" depart="229.60">
        <personTrip from="-23195799#0" to="32062050#1" walkFactor="0.75" costs="73.52"/>
    </person>
    <person id="172" type="DEFAULT_PEDTYPE" depart="232.00">
        <personTrip from="23195501#1" to="28719125#0" walkFactor="0.75" costs="162.80"/>
    </person>
    <person id="173" type="DEFAULT_PEDTYPE" depart="232.40">
        <personTrip from="-32062050#0" to="190606077#0" walkFactor="0.75" costs="168.79"/>
    </person>
    <person id="174" type="DEFAULT_PEDTYPE" depart="234.80">
        <personTrip from="23195755#0" to="23195800" walkFactor="0.75" costs="359.10"/>
    </person>
    <person id="175" type="DEFAULT_PEDTYPE" depart="236.40">
        <personTrip from="23195499#2" to="23195801" walkFactor="0.75" costs="267.70"/>
    </person>
    <person id="176" type="DEFAULT_PEDTYPE" depart="238.00">
        <personTrip from="-28719125#0" to="123592772#1" walkFactor="0.75" costs="62.90"/>
    </person>
    <person id="177" type="DEFAULT_PEDTYPE" depart="238.00">
        <personTrip from="522833731#1" to="23195499#2" walkFactor="0.75" costs="176.90"/>
    </person>
    <person id="178" type="DEFAULT_PEDTYPE" depart="239.80">
        <personTrip from="29033734#2" to="-184427426#4" walkFactor="0.75" costs="190.66"/>
    </person>
    <person id="179" type="DEFAULT_PEDTYPE" depart="240.00">
        <personTrip from="23195328#1" to="23195803#2" walkFactor="0.75" costs="240.56"/>
    </person>
    <person id="180" type="DEFAULT_PEDTYPE" depart="242.20">
        <personTrip from="539419138" to="23195801" walkFactor="0.75" costs="342.14"/>
    </person>
    <person id="181" type="DEFAULT_PEDTYPE" depart="245.60">