<?xml version="1.0" encoding="UTF-8"?>

<!-- generated on Fri Mar 31 10:37:46 2023 by Eclipse SUMO netconvert Version 1.8.0
<configuration xmlns:xsi="http://www.w3.org/2001/XMLSchema-instance" xsi:noNamespaceSchemaLocation="http://sumo.dlr.de/xsd/netconvertConfiguration.xsd">

    <input>
        <type-files value="/home/toore/Scaricati/sumo-git//data/typemap/osmNetconvert.typ.xml"/>
        <osm-files value="osm_bbox.osm.xml.gz"/>
    </input>

    <output>
        <output-file value="osm.net.xml.gz"/>
        <output.street-names value="true"/>
        <output.original-names value="true"/>
    </output>

    <projection>
        <proj.utm value="true"/>
    </projection>

    <processing>
        <geometry.remove value="true"/>
        <roundabouts.guess value="true"/>
    </processing>

    <tls_building>
        <tls.discard-simple value="true"/>
        <tls.join value="true"/>
        <tls.guess-signals value="true"/>
        <tls.default-type value="actuated"/>
    </tls_building>

    <ramp_guessing>
        <ramps.guess value="true"/>
    </ramp_guessing>

    <junctions>
        <junctions.join value="true"/>
        <junctions.corner-detail value="5"/>
    </junctions>

    <report>
        <verbose value="true"/>
        <aggregate-warnings value="5"/>
    </report>

</configuration>
-->

<net version="1.6" junctionCornerDetail="5" limitTurnSpeed="5.50" xmlns:xsi="http://www.w3.org/2001/XMLSchema-instance" xsi:noNamespaceSchemaLocation="http://sumo.dlr.de/xsd/net_file.xsd">

    <location netOffset="-652311.90,-4945167.86" convBoundary="0.00,0.00,780.94,773.83" origBoundary="10.920713,44.643708,10.930601,44.650594" projParameter="+proj=utm +zone=32 +ellps=WGS84 +datum=WGS84 +units=m +no_defs"/>

    <type id="highway.bridleway" priority="1" numLanes="1" speed="2.78" allow="pedestrian" oneway="1" width="2.00"/>
    <type id="highway.bus_guideway" priority="1" numLanes="1" speed="27.78" allow="bus" oneway="1"/>
    <type id="highway.cycleway" priority="1" numLanes="1" speed="5.56" allow="bicycle" oneway="0" width="1.00"/>
    <type id="highway.footway" priority="1" numLanes="1" speed="2.78" allow="pedestrian" oneway="1" width="2.00"/>
    <type id="highway.ford" priority="1" numLanes="1" speed="2.78" allow="army" oneway="0"/>
    <type id="highway.living_street" priority="2" numLanes="1" speed="2.78" disallow="tram rail_urban rail rail_electric rail_fast ship" oneway="0"/>
    <type id="highway.motorway" priority="14" numLanes="2" speed="39.44" allow="private emergency authority army vip passenger hov taxi bus coach delivery truck trailer motorcycle evehicle custom1 custom2" oneway="1"/>
    <type id="highway.motorway_link" priority="9" numLanes="1" speed="22.22" allow="private emergency authority army vip passenger hov taxi bus coach delivery truck trailer motorcycle evehicle custom1 custom2" oneway="1"/>
    <type id="highway.path" priority="1" numLanes="1" speed="5.56" allow="pedestrian bicycle" oneway="0" width="2.00"/>
    <type id="highway.pedestrian" priority="1" numLanes="1" speed="2.78" allow="pedestrian" oneway="1" width="2.00"/>
    <type id="highway.primary" priority="12" numLanes="2" speed="27.78" disallow="tram rail_urban rail rail_electric rail_fast ship" oneway="0"/>
    <type id="highway.primary_link" priority="7" numLanes="1" speed="22.22" disallow="tram rail_urban rail rail_electric rail_fast ship" oneway="0"/>
    <type id="highway.raceway" priority="15" numLanes="2" speed="83.33" allow="vip" oneway="0"/>
    <type id="highway.residential" priority="3" numLanes="1" speed="13.89" disallow="tram rail_urban rail rail_electric rail_fast ship" oneway="0"/>
    <type id="highway.secondary" priority="11" numLanes="1" speed="27.78" disallow="tram rail_urban rail rail_electric rail_fast ship" oneway="0"/>
    <type id="highway.secondary_link" priority="6" numLanes="1" speed="22.22" disallow="tram rail_urban rail rail_electric rail_fast ship" oneway="0"/>
    <type id="highway.service" priority="1" numLanes="1" speed="5.56" allow="pedestrian delivery bicycle" oneway="0"/>
    <type id="highway.stairs" priority="1" numLanes="1" speed="1.39" allow="pedestrian" oneway="1" width="2.00"/>
    <type id="highway.step" priority="1" numLanes="1" speed="1.39" allow="pedestrian" oneway="1" width="2.00"/>
    <type id="highway.steps" priority="1" numLanes="1" speed="1.39" allow="pedestrian" oneway="1" width="2.00"/>
    <type id="highway.tertiary" priority="10" numLanes="1" speed="22.22" disallow="tram rail_urban rail rail_electric rail_fast ship" oneway="0"/>
    <type id="highway.tertiary_link" priority="5" numLanes="1" speed="22.22" disallow="tram rail_urban rail rail_electric rail_fast ship" oneway="0"/>
    <type id="highway.track" priority="1" numLanes="1" speed="5.56" allow="pedestrian motorcycle moped bicycle" oneway="0"/>
    <type id="highway.trunk" priority="13" numLanes="2" speed="27.78" disallow="pedestrian bicycle tram rail_urban rail rail_electric rail_fast ship" oneway="0"/>
    <type id="highway.trunk_link" priority="8" numLanes="1" speed="22.22" disallow="pedestrian bicycle tram rail_urban rail rail_electric rail_fast ship" oneway="0"/>
    <type id="highway.unclassified" priority="4" numLanes="1" speed="13.89" disallow="tram rail_urban rail rail_electric rail_fast ship" oneway="0"/>
    <type id="highway.unsurfaced" priority="1" numLanes="1" speed="8.33" disallow="tram rail_urban rail rail_electric rail_fast ship" oneway="0"/>
    <type id="railway.highspeed" priority="21" numLanes="1" speed="69.44" allow="rail_fast" oneway="1"/>
    <type id="railway.light_rail" priority="19" numLanes="1" speed="27.78" allow="rail_urban" oneway="1"/>
    <type id="railway.preserved" priority="16" numLanes="1" speed="27.78" allow="rail" oneway="1"/>
    <type id="railway.rail" priority="20" numLanes="1" speed="44.44" allow="rail" oneway="1"/>
    <type id="railway.subway" priority="18" numLanes="1" speed="27.78" allow="rail_urban" oneway="1"/>
    <type id="railway.tram" priority="17" numLanes="1" speed="13.89" allow="tram" oneway="1"/>

    <edge id=":10556615837_0" function="internal">
        <lane id=":10556615837_0_0" index="0" disallow="tram rail_urban rail rail_electric rail_fast ship" speed="8.33" length="5.04" shape="465.83,307.74 461.97,310.98"/>
    </edge>
    <edge id=":10556615837_1" function="internal">
        <lane id=":10556615837_1_0" index="0" disallow="tram rail_urban rail rail_electric rail_fast ship" speed="3.65" length="2.34" shape="465.83,307.74 464.40,307.90 463.58,307.54"/>
    </edge>
    <edge id=":10556615837_4" function="internal">
        <lane id=":10556615837_4_0" index="0" disallow="tram rail_urban rail rail_electric rail_fast ship" speed="3.65" length="2.34" shape="463.58,307.54 463.37,306.67 463.77,305.29"/>
    </edge>
    <edge id=":10556615837_2" function="internal">
        <lane id=":10556615837_2_0" index="0" disallow="tram rail_urban rail rail_electric rail_fast ship" speed="8.33" length="5.04" shape="459.91,308.53 463.77,305.29"/>
    </edge>
    <edge id=":10556615837_3" function="internal">
        <lane id=":10556615837_3_0" index="0" disallow="tram rail_urban rail rail_electric rail_fast ship" speed="3.65" length="2.34" shape="459.91,308.53 461.35,308.37 462.17,308.73"/>
    </edge>
    <edge id=":10556615837_5" function="internal">
        <lane id=":10556615837_5_0" index="0" disallow="tram rail_urban rail rail_electric rail_fast ship" speed="3.65" length="2.34" shape="462.17,308.73 462.38,309.60 461.97,310.98"/>
    </edge>
    <edge id=":10556615839_0" function="internal">
        <lane id=":10556615839_0_0" index="0" disallow="tram rail_urban rail rail_electric rail_fast ship" speed="8.33" length="4.96" shape="466.43,371.84 463.94,367.54"/>
    </edge>
    <edge id=":10650275408_0" function="internal">
        <lane id=":10650275408_0_0" index="0" disallow="tram rail_urban rail rail_electric rail_fast ship" speed="8.33" length="5.00" shape="378.50,458.13 376.34,453.62"/>
    </edge>
    <edge id=":10650275411_0" function="internal">
        <lane id=":10650275411_0_0" index="0" disallow="tram rail_urban rail rail_electric rail_fast ship" speed="8.33" length="5.00" shape="304.78,410.58 300.25,412.71"/>
    </edge>
    <edge id=":10650275411_1" function="internal">
        <lane id=":10650275411_1_0" index="0" disallow="tram rail_urban rail rail_electric rail_fast ship" speed="3.65" length="4.67" shape="304.78,410.58 303.35,410.37 302.65,409.81 302.67,408.92 303.41,407.69"/>
    </edge>
    <edge id=":10650275411_2" function="internal">
        <lane id=":10650275411_2_0" index="0" disallow="tram rail_urban rail rail_electric rail_fast ship" speed="8.33" length="5.00" shape="298.89,409.82 303.41,407.69"/>
    </edge>
    <edge id=":10650275411_3" function="internal">
        <lane id=":10650275411_3_0" index="0" disallow="tram rail_urban rail rail_electric rail_fast ship" speed="3.65" length="4.67" shape="298.89,409.82 300.31,410.03 301.02,410.58 301.00,411.48 300.25,412.71"/>
    </edge>
    <edge id=":10650275426_0" function="internal">
        <lane id=":10650275426_0_0" index="0" disallow="tram rail_urban rail rail_electric rail_fast ship" speed="8.33" length="5.01" shape="207.18,469.20 210.05,473.30"/>
    </edge>
    <edge id=":10650275427_0" function="internal">
        <lane id=":10650275427_0_0" index="0" disallow="tram rail_urban rail rail_electric rail_fast ship" speed="8.33" length="5.00" shape="162.86,500.26 160.34,495.94"/>
    </edge>
    <edge id=":10658458534_0" function="internal">
        <lane id=":10658458534_0_0" index="0" disallow="tram rail_urban rail rail_electric rail_fast ship" speed="8.33" length="5.00" shape="479.42,296.33 475.59,299.54"/>
    </edge>
    <edge id=":10658458534_1" function="internal">
        <lane id=":10658458534_1_0" index="0" disallow="tram rail_urban rail rail_electric rail_fast ship" speed="3.65" length="4.67" shape="479.42,296.33 477.99,296.48 477.17,296.13 476.96,295.26 477.37,293.87"/>
    </edge>
    <edge id=":10658458534_2" function="internal">
        <lane id=":10658458534_2_0" index="0" disallow="tram rail_urban rail rail_electric rail_fast ship" speed="8.33" length="5.00" shape="473.54,297.08 477.37,293.87"/>
    </edge>
    <edge id=":10658458534_3" function="internal">
        <lane id=":10658458534_3_0" index="0" disallow="tram rail_urban rail rail_electric rail_fast ship" speed="3.65" length="4.67" shape="473.54,297.08 474.97,296.93 475.79,297.28 476.00,298.15 475.59,299.54"/>
    </edge>
    <edge id=":10693176343_0" function="internal">
        <lane id=":10693176343_0_0" index="0" allow="pedestrian delivery bicycle" speed="5.09" length="5.06" shape="399.49,501.92 398.73,500.79 397.78,500.17 396.63,500.07 395.29,500.48"/>
    </edge>
    <edge id=":10693176343_1" function="internal">
        <lane id=":10693176343_1_0" index="0" disallow="tram rail_urban rail rail_electric rail_fast ship" speed="8.33" length="9.40" shape="399.49,501.92 395.43,493.45"/>
    </edge>
    <edge id=":10693176343_2" function="internal">
        <lane id=":10693176343_2_0" index="0" allow="pedestrian delivery bicycle" speed="5.03" length="5.02" shape="393.94,497.57 395.10,496.82 395.73,495.88 395.84,494.76 395.43,493.45"/>
    </edge>
    <edge id=":10693176343_3" function="internal">
        <lane id=":10693176343_3_0" index="0" allow="pedestrian delivery bicycle" speed="3.65" length="4.67" shape="393.94,497.57 395.37,497.79 396.07,498.35 396.04,499.25 395.29,500.48"/>
    </edge>
    <edge id=":10693176344_0" function="internal">
        <lane id=":10693176344_0_0" index="0" disallow="tram rail_urban rail rail_electric rail_fast ship" speed="8.33" length="9.40" shape="343.16,527.83 339.27,519.28"/>
    </edge>
    <edge id=":10693176344_1" function="internal">
        <lane id=":10693176344_1_0" index="0" allow="pedestrian delivery bicycle" speed="6.87" length="5.07" shape="343.16,527.83 342.38,525.17 342.64,522.89"/>
    </edge>
    <edge id=":10693176344_2" function="internal">
        <lane id=":10693176344_2_0" index="0" disallow="tram rail_urban rail rail_electric rail_fast ship" speed="3.65" length="2.34" shape="343.16,527.83 343.39,526.41 343.95,525.72"/>
    </edge>
    <edge id=":10693176344_9" function="internal">
        <lane id=":10693176344_9_0" index="0" allow="pedestrian delivery bicycle" speed="6.87" length="5.09" shape="342.64,522.89 343.95,520.99 346.29,519.48"/>
    </edge>
    <edge id=":10693176344_10" function="internal">
        <lane id=":10693176344_10_0" index="0" disallow="tram rail_urban rail rail_electric rail_fast ship" speed="3.65" length="2.34" shape="343.95,525.72 344.85,525.75 346.07,526.51"/>
    </edge>
    <edge id=":10693176344_3" function="internal">
        <lane id=":10693176344_3_0" index="0" allow="pedestrian delivery bicycle" speed="5.05" length="5.02" shape="347.63,522.39 346.47,523.14 345.82,524.07 345.69,525.20 346.07,526.51"/>
    </edge>
    <edge id=":10693176344_4" function="internal">
        <lane id=":10693176344_4_0" index="0" allow="pedestrian delivery bicycle" speed="6.86" length="10.18" shape="347.63,522.39 344.95,523.19 342.67,522.93 340.77,521.63 339.27,519.28"/>
    </edge>
    <edge id=":10693176344_5" function="internal">
        <lane id=":10693176344_5_0" index="0" allow="pedestrian delivery bicycle" speed="3.65" length="4.67" shape="347.63,522.39 346.21,522.17 345.51,521.61 345.54,520.71 346.29,519.48"/>
    </edge>
    <edge id=":10693176344_6" function="internal">
        <lane id=":10693176344_6_0" index="0" allow="pedestrian delivery bicycle" speed="5.04" length="5.00" shape="342.19,517.95 342.92,519.11 343.85,519.75 344.98,519.87 346.29,519.48"/>
    </edge>
    <edge id=":10693176344_7" function="internal">
        <lane id=":10693176344_7_0" index="0" disallow="tram rail_urban rail rail_electric rail_fast ship" speed="8.33" length="9.40" shape="342.19,517.95 346.07,526.51"/>
    </edge>
    <edge id=":10693176344_8" function="internal">
        <lane id=":10693176344_8_0" index="0" disallow="tram rail_urban rail rail_electric rail_fast ship" speed="3.65" length="2.34" shape="342.19,517.95 341.95,519.38 341.39,520.07"/>
    </edge>
    <edge id=":10693176344_11" function="internal">
        <lane id=":10693176344_11_0" index="0" disallow="tram rail_urban rail rail_electric rail_fast ship" speed="3.65" length="2.34" shape="341.39,520.07 340.50,520.04 339.27,519.28"/>
    </edge>
    <edge id=":1256903860_0" function="internal">
        <lane id=":1256903860_0_0" index="0" disallow="tram rail_urban rail rail_electric rail_fast ship" speed="8.33" length="4.98" shape="484.03,292.42 480.24,295.64"/>
    </edge>
    <edge id=":1256903860_1" function="internal">
        <lane id=":1256903860_1_0" index="0" disallow="tram rail_urban rail rail_electric rail_fast ship" speed="3.65" length="2.34" shape="484.03,292.42 482.60,292.60 481.78,292.26"/>
    </edge>
    <edge id=":1256903860_4" function="internal">
        <lane id=":1256903860_4_0" index="0" disallow="tram rail_urban rail rail_electric rail_fast ship" speed="3.65" length="2.34" shape="481.78,292.26 481.55,291.39 481.94,290.00"/>
    </edge>
    <edge id=":1256903860_2" function="internal">
        <lane id=":1256903860_2_0" index="0" disallow="tram rail_urban rail rail_electric rail_fast ship" speed="8.33" length="4.92" shape="478.19,293.19 481.94,290.00"/>
    </edge>
    <edge id=":1256903860_3" function="internal">
        <lane id=":1256903860_3_0" index="0" disallow="tram rail_urban rail rail_electric rail_fast ship" speed="3.65" length="2.34" shape="478.19,293.19 479.62,293.03 480.44,293.39"/>
    </edge>
    <edge id=":1256903860_5" function="internal">
        <lane id=":1256903860_5_0" index="0" disallow="tram rail_urban rail rail_electric rail_fast ship" speed="3.65" length="2.34" shape="480.44,293.39 480.65,294.26 480.24,295.64"/>
    </edge>
    <edge id=":1256903862_0" function="internal">
        <lane id=":1256903862_0_0" index="0" disallow="tram rail_urban rail rail_electric rail_fast ship" speed="6.36" length="9.04" shape="535.62,480.45 534.20,478.39 532.48,477.33 530.47,477.26 528.15,478.20"/>
    </edge>
    <edge id=":1256903862_1" function="internal">
        <lane id=":1256903862_1_0" index="0" disallow="tram rail_urban rail rail_electric rail_fast ship" speed="6.74" length="9.22" shape="535.62,480.45 534.80,478.03 534.90,475.91 535.90,474.08 537.81,472.54"/>
    </edge>
    <edge id=":1324159545_0" function="internal">
        <lane id=":1324159545_0_0" index="0" disallow="tram rail_urban rail rail_electric rail_fast ship" speed="8.33" length="1.85" shape="148.36,405.47 149.04,407.20"/>
    </edge>
    <edge id=":1377649984_0" function="internal">
        <lane id=":1377649984_0_0" index="0" disallow="tram rail_urban rail rail_electric rail_fast ship" speed="8.33" length="8.80" shape="645.56,339.88 653.30,335.71"/>
    </edge>
    <edge id=":1377649984_1" function="internal">
        <lane id=":1377649984_1_0" index="0" disallow="tram rail_urban rail rail_electric rail_fast ship" speed="6.47" length="9.03" shape="645.56,339.88 647.90,339.04 649.93,339.16 651.66,340.24 653.08,342.27"/>
    </edge>
    <edge id=":1787128305_0" function="internal">
        <lane id=":1787128305_0_0" index="0" disallow="tram rail_urban rail rail_electric rail_fast ship" speed="3.91" length="2.45" shape="242.45,370.21 242.05,369.67 241.58,369.38 241.02,369.33 240.38,369.52"/>
    </edge>
    <edge id=":1945691564_0" function="internal">
        <lane id=":1945691564_0_0" index="0" disallow="tram rail_urban rail rail_electric rail_fast ship" speed="8.33" length="5.22" shape="285.33,465.22 284.50,463.92 283.96,463.00 283.47,462.06 282.81,460.66"/>
    </edge>
    <edge id=":2025194842_0" function="internal">
        <lane id=":2025194842_0_0" index="0" disallow="tram rail_urban rail rail_electric rail_fast ship" speed="8.33" length="0.27" shape="119.80,440.44 119.91,440.68"/>
    </edge>
    <edge id=":2025439713_0" function="internal">
        <lane id=":2025439713_0_0" index="0" disallow="tram rail_urban rail rail_electric rail_fast ship" speed="5.32" length="5.42" shape="441.83,521.03 444.93,525.48"/>
    </edge>
    <edge id=":2030176507_0" function="internal">
        <lane id=":2030176507_0_0" index="0" disallow="tram rail_urban rail rail_electric rail_fast ship" speed="8.33" length="12.35" shape="210.78,254.45 208.36,256.76 206.34,258.77 204.24,260.66 201.57,262.65"/>
    </edge>
    <edge id=":2030176515_0" function="internal">
        <lane id=":2030176515_0_0" index="0" disallow="tram rail_urban rail rail_electric rail_fast ship" speed="8.33" length="5.01" shape="335.39,335.99 333.58,331.32"/>
    </edge>
    <edge id=":2030176515_1" function="internal">
        <lane id=":2030176515_1_0" index="0" disallow="tram rail_urban rail rail_electric rail_fast ship" speed="3.65" length="4.67" shape="335.39,335.99 335.70,334.58 336.30,333.92 337.19,334.00 338.37,334.83"/>
    </edge>
    <edge id=":2030176515_2" function="internal">
        <lane id=":2030176515_2_0" index="0" disallow="tram rail_urban rail rail_electric rail_fast ship" speed="8.33" length="5.00" shape="336.57,330.16 338.37,334.83"/>
    </edge>
    <edge id=":2030176515_3" function="internal">
        <lane id=":2030176515_3_0" index="0" disallow="tram rail_urban rail rail_electric rail_fast ship" speed="3.65" length="4.67" shape="336.57,330.16 336.25,331.57 335.65,332.23 334.76,332.15 333.58,331.32"/>
    </edge>
    <edge id=":250846398_0" function="internal">
        <lane id=":250846398_0_0" index="0" disallow="tram rail_urban rail rail_electric rail_fast ship" speed="3.65" length="4.67" shape="506.63,178.98 507.03,177.59 507.67,176.97 508.56,177.11 509.68,178.01"/>
    </edge>
    <edge id=":250846399_0" function="internal">
        <lane id=":250846399_0_0" index="0" disallow="tram rail_urban rail rail_electric rail_fast ship" speed="3.65" length="4.67" shape="663.01,180.21 662.47,178.87 662.59,177.99 663.37,177.55 664.81,177.57"/>
    </edge>
    <edge id=":250846426_0" function="internal">
        <lane id=":250846426_0_0" index="0" disallow="tram rail_urban rail rail_electric rail_fast ship" speed="6.53" length="8.23" shape="185.84,149.41 184.22,147.90 182.46,147.19 180.57,147.29 178.54,148.19"/>
    </edge>
    <edge id=":250846426_1" function="internal">
        <lane id=":250846426_1_0" index="0" disallow="tram rail_urban rail rail_electric rail_fast ship" speed="8.33" length="9.72" shape="185.84,149.41 184.05,147.16 182.98,145.48 182.30,143.61 181.68,140.82"/>
    </edge>
    <edge id=":250846426_2" function="internal">
        <lane id=":250846426_2_0" index="0" disallow="tram rail_urban rail rail_electric rail_fast ship" speed="3.65" length="4.67" shape="185.84,149.41 185.70,147.98 186.07,147.16 186.95,146.97 188.32,147.39"/>
    </edge>
    <edge id=":250846426_3" function="internal">
        <lane id=":250846426_3_0" index="0" disallow="tram rail_urban rail rail_electric rail_fast ship" speed="8.33" length="8.16" shape="184.81,140.19 185.34,142.53 185.92,144.10 186.82,145.51 188.32,147.39"/>
    </edge>
    <edge id=":250846426_4" function="internal">
        <lane id=":250846426_4_0" index="0" disallow="tram rail_urban rail rail_electric rail_fast ship" speed="8.14" length="10.71" shape="184.81,140.19 184.70,142.06 183.61,144.01 181.56,146.06 178.54,148.19"/>
    </edge>
    <edge id=":250846426_5" function="internal">
        <lane id=":250846426_5_0" index="0" disallow="tram rail_urban rail rail_electric rail_fast ship" speed="3.65" length="4.67" shape="184.81,140.19 184.27,141.52 183.56,142.07 182.70,141.84 181.68,140.82"/>
    </edge>
    <edge id=":250846431_0" function="internal">
        <lane id=":250846431_0_0" index="0" disallow="tram rail_urban rail rail_electric rail_fast ship" speed="3.65" length="4.67" shape="346.88,253.30 348.21,253.85 348.76,254.56 348.53,255.42 347.51,256.44"/>
    </edge>
    <edge id=":250848835_0" function="internal">
        <lane id=":250848835_0_0" index="0" disallow="tram rail_urban rail rail_electric rail_fast ship" speed="6.51" length="9.02" shape="562.19,546.97 564.23,545.57 565.33,543.86 565.49,541.82 564.73,539.47"/>
    </edge>
    <edge id=":250848835_1" function="internal">
        <lane id=":250848835_1_0" index="0" disallow="tram rail_urban rail rail_electric rail_fast ship" speed="3.65" length="4.67" shape="562.19,546.97 563.62,547.15 564.33,547.69 564.33,548.59 563.61,549.84"/>
    </edge>
    <edge id=":250848843_0" function="internal">
        <lane id=":250848843_0_0" index="0" disallow="tram rail_urban rail rail_electric rail_fast ship" speed="3.65" length="4.67" shape="83.89,516.43 82.49,516.09 81.84,515.47 81.94,514.58 82.80,513.42"/>
    </edge>
    <edge id=":250848868_0" function="internal">
        <lane id=":250848868_0_0" index="0" disallow="tram rail_urban rail rail_electric rail_fast ship" speed="6.60" length="8.42" shape="445.77,514.37 445.95,516.59 445.38,518.42 444.07,519.88 442.02,520.96"/>
    </edge>
    <edge id=":250848873_0" function="internal">
        <lane id=":250848873_0_0" index="0" disallow="tram rail_urban rail rail_electric rail_fast ship" speed="6.45" length="9.03" shape="403.51,523.34 405.61,522.01 406.76,520.34 406.96,518.31 406.22,515.94"/>
    </edge>
    <edge id=":250848873_1" function="internal">
        <lane id=":250848873_1_0" index="0" disallow="tram rail_urban rail rail_electric rail_fast ship" speed="7.20" length="9.33" shape="403.51,523.34 405.96,522.59 408.17,522.66 410.13,523.53 411.85,525.22"/>
    </edge>
    <edge id=":250848878_0" function="internal">
        <lane id=":250848878_0_0" index="0" disallow="tram rail_urban rail rail_electric rail_fast ship" speed="8.33" length="11.25" shape="375.14,536.38 385.30,531.52"/>
    </edge>
    <edge id=":250848878_1" function="internal">
        <lane id=":250848878_1_0" index="0" disallow="tram rail_urban rail rail_electric rail_fast ship" speed="6.28" length="9.04" shape="375.14,536.38 377.53,535.58 379.53,535.79 381.12,537.01 382.31,539.22"/>
    </edge>
    <edge id=":250848879_0" function="internal">
        <lane id=":250848879_0_0" index="0" disallow="tram rail_urban rail rail_electric rail_fast ship" speed="7.88" length="14.18" shape="483.97,502.34 479.26,504.33 475.57,505.01 472.88,504.38 471.20,502.45"/>
    </edge>
    <edge id=":250848880_0" function="internal">
        <lane id=":250848880_0_0" index="0" disallow="tram rail_urban rail rail_electric rail_fast ship" speed="6.51" length="9.00" shape="501.32,499.81 499.90,497.80 498.17,496.72 496.14,496.58 493.80,497.37"/>
    </edge>
    <edge id=":250848880_1" function="internal">
        <lane id=":250848880_1_0" index="0" disallow="tram rail_urban rail rail_electric rail_fast ship" speed="8.33" length="11.15" shape="501.32,499.81 496.27,489.87"/>
    </edge>
    <edge id=":250848881_0" function="internal">
        <lane id=":250848881_0_0" index="0" disallow="tram rail_urban rail rail_electric rail_fast ship" speed="6.38" length="9.04" shape="528.06,478.26 525.74,479.19 523.72,479.14 522.00,478.09 520.56,476.04"/>
    </edge>
    <edge id=":250848882_0" function="internal">
        <lane id=":250848882_0_0" index="0" disallow="tram rail_urban rail rail_electric rail_fast ship" speed="6.52" length="8.65" shape="542.93,469.52 544.77,468.05 545.74,466.34 545.84,464.37 545.07,462.14"/>
    </edge>
    <edge id=":250848886_0" function="internal">
        <lane id=":250848886_0_0" index="0" disallow="tram rail_urban rail rail_electric rail_fast ship" speed="3.65" length="2.07" shape="565.47,461.54 565.67,460.11 566.05,459.61"/>
    </edge>
    <edge id=":250848886_2" function="internal">
        <lane id=":250848886_2_0" index="0" disallow="tram rail_urban rail rail_electric rail_fast ship" speed="3.65" length="2.60" shape="566.05,459.61 566.21,459.40 567.11,459.41 568.35,460.14"/>
    </edge>
    <edge id=":250848886_1" function="internal">
        <lane id=":250848886_1_0" index="0" disallow="tram rail_urban rail rail_electric rail_fast ship" speed="8.33" length="6.13" shape="565.16,455.07 565.58,456.74 566.37,457.71 567.34,458.63 568.35,460.14"/>
    </edge>
    <edge id=":250850820_0" function="internal">
        <lane id=":250850820_0_0" index="0" disallow="tram rail_urban rail rail_electric rail_fast ship" speed="6.33" length="9.04" shape="653.66,328.94 655.09,330.99 656.82,332.03 658.83,332.05 661.13,331.05"/>
    </edge>
    <edge id=":250850820_1" function="internal">
        <lane id=":250850820_1_0" index="0" disallow="tram rail_urban rail rail_electric rail_fast ship" speed="8.33" length="8.91" shape="653.48,335.61 661.13,331.05"/>
    </edge>
    <edge id=":250850821_0" function="internal">
        <lane id=":250850821_0_0" index="0" disallow="tram rail_urban rail rail_electric rail_fast ship" speed="8.33" length="5.23" shape="579.40,375.19 577.13,370.47"/>
    </edge>
    <edge id=":250850821_1" function="internal">
        <lane id=":250850821_1_0" index="0" disallow="tram rail_urban rail rail_electric rail_fast ship" speed="3.65" length="4.67" shape="579.40,375.19 579.57,373.75 580.10,373.03 580.99,373.02 582.25,373.73"/>
    </edge>
    <edge id=":250850821_2" function="internal">
        <lane id=":250850821_2_0" index="0" disallow="tram rail_urban rail rail_electric rail_fast ship" speed="8.33" length="5.08" shape="580.05,369.16 582.25,373.73"/>
    </edge>
    <edge id=":250850821_3" function="internal">
        <lane id=":250850821_3_0" index="0" disallow="tram rail_urban rail rail_electric rail_fast ship" speed="3.65" length="4.67" shape="580.05,369.16 579.81,370.58 579.25,371.27 578.35,371.24 577.13,370.47"/>
    </edge>
    <edge id=":250850822_0" function="internal">
        <lane id=":250850822_0_0" index="0" disallow="tram rail_urban rail rail_electric rail_fast ship" speed="8.33" length="11.15" shape="624.81,357.03 620.20,346.89"/>
    </edge>
    <edge id=":250850822_1" function="internal">
        <lane id=":250850822_1_0" index="0" disallow="tram rail_urban rail rail_electric rail_fast ship" speed="6.56" length="9.05" shape="624.81,357.03 624.05,354.72 624.23,352.70 625.33,350.95 627.38,349.48"/>
    </edge>
    <edge id=":250850826_0" function="internal">
        <lane id=":250850826_0_0" index="0" disallow="tram rail_urban rail rail_electric rail_fast ship" speed="8.33" length="11.37" shape="665.63,426.50 662.75,427.81 660.65,429.19 658.56,430.61 655.73,432.03"/>
    </edge>
    <edge id=":250850826_1" function="internal">
        <lane id=":250850826_1_0" index="0" disallow="tram rail_urban rail rail_electric rail_fast ship" speed="7.32" length="10.65" shape="665.63,426.50 663.19,426.89 660.98,426.24 659.00,424.53 657.24,421.78"/>
    </edge>
    <edge id=":250850826_2" function="internal">
        <lane id=":250850826_2_0" index="0" disallow="tram rail_urban rail rail_electric rail_fast ship" speed="6.35" length="9.04" shape="654.51,429.07 656.67,427.80 657.84,426.16 658.04,424.16 657.24,421.78"/>
    </edge>
    <edge id=":250850826_3" function="internal">
        <lane id=":250850826_3_0" index="0" disallow="tram rail_urban rail rail_electric rail_fast ship" speed="3.65" length="4.67" shape="654.51,429.07 655.93,429.36 656.60,429.95 656.53,430.84 655.73,432.03"/>
    </edge>
    <edge id=":250850834_0" function="internal">
        <lane id=":250850834_0_0" index="0" disallow="tram rail_urban rail rail_electric rail_fast ship" speed="3.65" length="4.67" shape="0.26,226.47 -1.05,225.88 -1.58,225.15 -1.31,224.30 -0.26,223.31"/>
    </edge>
    <edge id=":250850849_0" function="internal">
        <lane id=":250850849_0_0" index="0" disallow="tram rail_urban rail rail_electric rail_fast ship" speed="8.33" length="9.12" shape="139.96,45.87 134.27,38.74"/>
    </edge>
    <edge id=":250850849_1" function="internal">