<?xml version="1.0" encoding="UTF-8"?>

<!-- generated on 2023-04-06 18:38:36.362164 by randomTrips.py v1_15_0+0682-ef022823415
<configuration>
    <end value="1000"/>
    <length value="True"/>
    <net-file value="/home/toore/Tirocinio_SUMO/Scenario/scenario_per_tesi/2023-03-31-10-37-43/osm.net.xml"/>
    <pedestrians value="True"/>
    <period value="1.4"/>
    <random value="True"/>
    <random-depart value="True"/>
    <route-file value="peds.rou.xml"/>
    <seed value="10000"/>
    <trip-attributes value="type=&quot;DEFAULT_PEDTYPE&quot;"/>
</configuration>
-->

<!-- generated on Thu Apr  6 18:38:36 2023 by Eclipse SUMO duarouter Version 1.8.0
<configuration xmlns:xsi="http://www.w3.org/2001/XMLSchema-instance" xsi:noNamespaceSchemaLocation="http://sumo.dlr.de/xsd/duarouterConfiguration.xsd">

    <input>
        <net-file value="/home/toore/Tirocinio_SUMO/Scenario/scenario_per_tesi/2023-03-31-10-37-43/osm.net.xml"/>
        <route-files value="trips.trips.xml"/>
    </input>

    <output>
        <output-file value="peds.rou.xml"/>
        <alternatives-output value="NUL"/>
    </output>

    <time>
        <begin value="0"/>
        <end value="1000"/>
    </time>

    <report>
        <no-warnings value="true"/>
        <ignore-errors value="true"/>
        <no-step-log value="true"/>
    </report>

</configuration>
-->

<routes xmlns:xsi="http://www.w3.org/2001/XMLSchema-instance" xsi:noNamespaceSchemaLocation="http://sumo.dlr.de/xsd/routes_file.xsd">
    <person id="0" type="DEFAULT_PEDTYPE" depart="0.60">
        <walk edges="28709110 -191959706#1 -191959706#0 996144772#1 23195752#2 -191979122 193099645#2 193099645#1 191871225#0 23195801"/>
    </person>
    <person id="1" type="DEFAULT_PEDTYPE" depart="2.20">
        <walk edges="998769532 998769540#1 28717086 1000553425 1000553424#1 1000553424#0 185271779#2 1132162842#1 522833750#1 -522833746"/>
    </person>
    <person id="2" type="DEFAULT_PEDTYPE" depart="3.20">
        <walk edges="28709107#0 191979121 -191979122 522833721 -191959714 996022767 167255138#1 995252087#1"/>
    </person>
    <person id="3" type="DEFAULT_PEDTYPE" depart="3.40">
        <walk edges="28710934 -191959712#0 996022767 167255138#1 28710621#3 28710621#2 28710621#1 -23195751#0"/>
    </person>
    <person id="4" type="DEFAULT_PEDTYPE" depart="4.60">
        <walk edges="191871225#0 193099645#1 193099645#2 191979122 23195752#2 996144772#1 -191959706#0 191959706#1 996144773"/>
    </person>
    <person id="5" type="DEFAULT_PEDTYPE" depart="5.40">
        <walk edges="-28718922#1 522833750#1 1132162843#1 1132162843#2 522833731#1 522833732#1 522833729#1 522833719 191979123#1"/>
    </person>
    <person id="6" type="DEFAULT_PEDTYPE" depart="6.20">
        <walk edges="184427426#1 184427426#3 23196322#0 29033732 -191987466 522431205 191987465#0 191987465#1 522833744 522833741#1 522833750#1 1132162843#1 1132162843#2 522833731#1 522833732#1 522833729#1 522833719 -522833720#0 28709107#0 28709107#1 191979127#0 996364918 23195754#5 23195752#1"/>
    </person>
    <person id="7" type="DEFAULT_PEDTYPE" depart="7.20">
        <walk edges="545476129#5 484335723#1 484335723#2 190606081 190606089 191785971 190606088#0 190606088#1 184427434#0"/>
    </person>
    <person id="8" type="DEFAULT_PEDTYPE" depart="9.40">
        <walk edges="995252087#1 167255138#1 996022767 191959714 522833721 -191979122 193099645#2 193099645#1 191871225#0 23195801"/>
    </person>
    <person id="9" type="DEFAULT_PEDTYPE" depart="11.00">
        <walk edges="-32062050#0 655717650#0 655717650#1 -485720694 -485720696 484335723#0 484335723#1 484335723#2 190606081 23195795 1132162844#0 1132162844#1 1132162843#2 522833731#1 522833732#1 522833729#1 1149633799 28708934#0 998769538#1 545477613#0 545477613#1 545477613#2 23196319"/>
    </person>
    <person id="10" type="DEFAULT_PEDTYPE" depart="11.80">
        <walk edges="-322548792#1 322548792#2 -322548792#3 -322548792#4 322548792#6 998769529 54704028#0 998769538#0 998769538#1 28708934#0 1149633799 522833729#1 522833732#1 522833731#1 1132162843#2 1132162844#1 1132162844#0 23195795 190606081 484335723#2 484335723#1 545476129#5"/>
    </person>
    <person id="11" type="DEFAULT_PEDTYPE" depart="13.20">
        <walk edges="655717643 655717642 655717652 545476129#2 545476129#3 545476129#4 545476129#5"/>
    </person>
    <person id="12" type="DEFAULT_PEDTYPE" depart="13.60">
        <walk edges="28710621#2 28710755#0 28710755#2 996144772#1 191979127#0 28709107#1 28709107#0 -522833720#0 522833719 522833729#1 522833732#1 522833731#1 1132162843#2 1132162843#1 522833750#1 522833741#1 522833744 -191987465#1 -191987465#0 -522833753"/>
    </person>
    <person id="13" type="DEFAULT_PEDTYPE" depart="14.60">
        <walk edges="28710621#0 -23195751#1 23195751#2 -191959706#1 -191959706#0 996144772#1 191979127#0 28709107#1 28709107#0 -522833720#0 522833719 522833729#1 522833732#1 184427434#0 190606088#1 661212190 -474164620#0 23195798"/>
    </person>
    <person id="14" type="DEFAULT_PEDTYPE" depart="14.80">
        <walk edges="647789892 429515619#0 23195328#0 522497449 1000553425 1000553424#1 1000553424#0 185271779#2 1132162842#1 522833750#1 -522833746"/>
    </person>
    <person id="15" type="DEFAULT_PEDTYPE" depart="14.80">
        <walk edges="522833719 522833729#1 522833732#1 522833731#1 1132162843#2 1132162843#1 522833750#1 522833741#1 522833744 -191987465#1 -191987465#0 522431205 191987466 29033732 23196322#0 -184427426#3 539483278"/>
    </person>
    <person id="16" type="DEFAULT_PEDTYPE" depart="15.40">
        <walk edges="190606073 539419137#1 191987468#1 397927055#0 -485720696 484335723#0 484335723#1 484335723#2 190606081 23195795 1132162844#0 1132162844#1 1132162843#2 522833731#1 522833732#1 522833729#1 1149633799 28708934#0 998769538#1 -998769538#0 54704028#0 998769529 322548792#6 322548792#4 -322548792#3 -322548792#2 28710410 -23195751#2 -23195751#1 28710621#1"/>
    </person>
    <person id="17" type="DEFAULT_PEDTYPE" depart="16.40">
        <walk edges="23195501#1 1149633799 28708934#0 998769538#1 -998769538#0 54704028#0 54704028#1 998769539 998769531"/>
    </person>
    <person id="18" type="DEFAULT_PEDTYPE" depart="22.00">
        <walk edges="-23195751#0 -23195751#1 23195751#2 -191959706#1 -191959706#0 996144772#1 191979127#0 28709107#1 28709107#0 -522833720#0 522833719 522833729#1 23195792#0"/>
    </person>
    <person id="19" type="DEFAULT_PEDTYPE" depart="25.60">
        <walk edges="996364918 23195752#2 522833721 -191959714 191959712#0"/>
    </person>
    <person id="20" type="DEFAULT_PEDTYPE" depart="26.00">
        <walk edges="655693841 655693839 191871225#3 28998662#0 28998662#1 353382753 353382750#1 1002422788#1 1002422788#0 -522833720#0 191979121 191979122 522833721 -191959714 996022767 996022769#1"/>
    </person>
    <person id="21" type="DEFAULT_PEDTYPE" depart="27.80">
        <walk edges="190606085 190606070 1132162844#0 1132162844#1 1132162843#2 522833731#1 522833732#1 522833729#1 28998662#3"/>
    </person>
    <person id="22" type="DEFAULT_PEDTYPE" depart="28.00">
        <walk edges="28999595#1 522833750#1 1132162842#1 -185271779#2 1000553424#0 1000553424#1 1000553425 522497449 23195328#0 1001467661 -545496366#1 322548792#6 322548792#4 -322548792#3 -322548792#2 -322548792#1"/>
    </person>
    <person id="23" type="DEFAULT_PEDTYPE" depart="28.60">
        <walk edges="-32062050#0 655717650#0 655717650#1 -485720694 -485720696 484335723#0 484335723#1 484335723#2 190606081 23195795 1132162844#0 1132162846"/>
    </person>
    <person id="24" type="DEFAULT_PEDTYPE" depart="29.20">
        <walk edges="29241566 522431207 28719125#1 522833744 522833741#1 522833750#1 1132162842#1 -185271779#2 1000553424#0 1000553424#1 1000553425 522497449 23195328#0 1001467661 -545496366#1 28708932"/>
    </person>
    <person id="25" type="DEFAULT_PEDTYPE" depart="29.40">
        <walk edges="192464423 -191959706#0 996144772#1 23195752#2 522833721 -522833721"/>
    </person>
    <person id="26" type="DEFAULT_PEDTYPE" depart="30.00">
        <walk edges="-191979123#0 522833719 522833729#1 522833732#1 522833731#1 1132162843#2 1132162843#1 522833750#1 -28718922#1"/>
    </person>
    <person id="27" type="DEFAULT_PEDTYPE" depart="30.40">
        <walk edges="190606078#1 539419137#1 191987468#1 397927055#0 -485720696 -1144028925 23195499#2 -23195499#1 23195499#0 522833744 522833741#1 -28718922#1 388912103 23195328#2"/>
    </person>
    <person id="28" type="DEFAULT_PEDTYPE" depart="30.60">
        <walk edges="-998769537 522833729#1 522833732#1 522833731#1 1132162843#2 1132162844#1 1132162844#0 23195795 190606081 484335723#2 484335723#1 484335723#0 485720696 397927055#0"/>
    </person>
    <person id="29" type="DEFAULT_PEDTYPE" depart="30.80">
        <walk edges="-191987469#1 191987468#1 397927055#0 -485720696 484335723#0 484335723#1 484335723#2 190606081 23195795 1132162844#0 1132162846"/>
    </person>
    <person id="31" type="DEFAULT_PEDTYPE" depart="34.40">
        <walk edges="23195794#1 23195794#0"/>
    </person>
    <person id="32" type="DEFAULT_PEDTYPE" depart="34.60">
        <walk edges="539419144 190606079#1 539419137#1 191987468#1 397927055#0 -485720696 484335723#0 484335723#1 484335723#2 190606081 23195795 1132162844#0 1132162844#1 1132162843#2 522833731#1 522833732#1 522833729#1 522833719"/>
    </person>
    <person id="33" type="DEFAULT_PEDTYPE" depart="34.60">
        <walk edges="192464423 322548792#3 -322548792#4 322548792#6 998769529 54704028#0 998769538#0 998769538#1 28708934#0 1149633799 28998662#3 28998662#2 28998662#1 28998662#0 191871225#3 23195503"/>
    </person>
    <person id="34" type="DEFAULT_PEDTYPE" depart="38.20">
        <walk edges="998798218 998769529 54704028#0 -998769538#0 545477613#0 545477613#1 545477613#2 452767836#0 452767836#1 28709107#0 191979121 191979122 23195803#1 1144160277"/>
    </person>
    <person id="35" type="DEFAULT_PEDTYPE" depart="38.60">
        <walk edges="388909094 458676577#0 458676577#1 458676577#2 28999595#1"/>
    </person>
    <person id="36" type="DEFAULT_PEDTYPE" depart="39.20">
        <walk edges="23195800 191871225#2 28998662#0 28998662#1 28998662#2 1144160275#0"/>
    </person>
    <person id="37" type="DEFAULT_PEDTYPE" depart="42.00">
        <walk edges="452767836#1 28709107#1 191979127#0 996144772#1"/>
    </person>
    <person id="38" type="DEFAULT_PEDTYPE" depart="46.80">
        <walk edges="28710621#0 -23195751#1 23195751#2 28710410 322548792#2 322548792#3 -322548792#4 322548792#6 545496366#1 1001467661 23195328#0 522497449 1000553425 1000553424#1 1000553424#0 185271779#2 1132162842#1 522833750#1 522833741#1 522833744 -191987465#1 -191987465#0 522431205 191987466 29033732 23196322#0 -184427426#3 29072597#1"/>
    </person>
    <person id="39" type="DEFAULT_PEDTYPE" depart="47.40">
        <walk edges="29072597#1 184427426#3 23196322#0 29033732 -191987466 522431205 191987465#0 191987465#1 522833744 522833741#1 -28718922#1 388912103 23195328#2"/>
    </person>
    <person id="40" type="DEFAULT_PEDTYPE" depart="49.60">
        <walk edges="23683441#1 28709107#0 28709107#1 191979127#0 996144772#1 -191959706#0 191959706#1 -23195751#2 -23195751#1 23195751#1"/>
    </person>
    <person id="41" type="DEFAULT_PEDTYPE" depart="50.60">
        <walk edges="23195499#1 23195499#0 522833744 522833741#1 522833750#1 1132162843#1 1132162843#2 522833731#1 522833732#1 522833729#1 522833719 -522833720#0 28709107#0 28709107#1 191979127#0 191979127#3 23195749#0 -28710790"/>
    </person>
    <person id="42" type="DEFAULT_PEDTYPE" depart="51.20">
        <walk edges="28710410 322548792#2 -322548792#3 -322548792#4 322548792#6 998769529 54704028#0 998769538#0 998769538#1 28708934#0 1149633799 522833729#1 522833732#1 522833731#1 23195794#1"/>
    </person>
    <person id="43" type="DEFAULT_PEDTYPE" depart="51.80">
        <walk edges="28710621#2 28710755#0 28710755#2 996144772#1 191979127#0 28709107#1 28709107#0 -522833720#0 522833719 522833729#1 522833732#1 522833731#1 1132162843#2 1132162843#1 522833750#1 522833741#1 522833744 -191987465#1 -191987465#0 522431205 191987466 29033732 23196322#0 184427426#3"/>
    </person>
    <person id="44" type="DEFAULT_PEDTYPE" depart="51.80">
        <walk edges="322548792#1 -322548792#1 322548792#2 322548792#3 -322548792#4 322548792#6 998769529 54704028#0 998769538#0 998769538#1 28708934#0 1149633799 522833729#1 522833732#1 522833731#1 1132162843#2 1132162844#1 1132162844#0 23195795 190606081 484335723#2 484335723#1 484335723#0 485720696 -397927055#0 23195736"/>
    </person>
    <person id="45" type="DEFAULT_PEDTYPE" depart="53.40">
        <walk edges="-522833753 191987465#0 191987465#1 522833744 522833741#1 522833750#1 1132162843#1 1132162843#2 522833731#1 522833732#1 522833729#1 28998662#3 28998662#2 28998662#1 1149437440"/>
    </person>
    <person id="46" type="DEFAULT_PEDTYPE" depart="53.60">
        <walk edges="23196319 452767836#0 452767836#1 28709107#0 -522833720#0 1002422788#0 1002422788#1 1002422790 353382752 28998663#1 28998663#0 23195801"/>
    </person>
    <person id="47" type="DEFAULT_PEDTYPE" depart="54.20">
        <walk edges="28710621#0 -23195751#1 23195751#2 -191959706#1 -191959706#0 996144772#1 23195752#2 -191979122 193099645#2 193099645#1 191871225#0 28998663#0"/>
    </person>
    <person id="48" type="DEFAULT_PEDTYPE" depart="54.20">
        <walk edges="522833750#1 1132162843#1 1132162843#2 522833731#1 522833732#1 522833729#1 522833719 -522833720#0 191979121 191979122 522833721 -191959714 996022767 996022769#1"/>
    </person>
    <person id="49" type="DEFAULT_PEDTYPE" depart="55.00">
        <walk edges="28710410 322548792#2 -322548792#3 -322548792#4 322548792#6 998769529 54704028#0 998769538#0 998769538#1 28708934#0 1149633799 522833729#1 522833732#1 184427434#0 190606088#1 661212190"/>
    </person>
    <person id="50" type="DEFAULT_PEDTYPE" depart="55.40">
        <walk edges="997944679 23195755#1 996144772#1 191979127#0 28709107#1 28709107#0 -522833720#0 522833719 522833729#1 522833732#1 522833731#1 1132162843#2 1132162844#1 1132162844#0 23195795 190606081 484335723#2 484335723#1 545476129#5"/>
    </person>
    <person id="51" type="DEFAULT_PEDTYPE" depart="57.60">
        <walk edges="123592772#2 123592772#1 522431205 -191987465#0 191987465#1 23195499#0 23195499#1"/>
    </person>
    <person id="52" type="DEFAULT_PEDTYPE" depart="59.80">
        <walk edges="-191959706#1 28710410 322548792#2 322548792#3 -322548792#4 322548792#6 998769529 54704028#0 -167113237"/>
    </person>
    <person id="53" type="DEFAULT_PEDTYPE" depart="60.00">
        <walk edges="29072597#1 190606077#5 190606077#4 190606077#3 190606077#2 190606077#1 190606077#0 23195734 23195499#2 -1144028925 484335723#0 484335723#1 484335723#2 190606081 190606089 191785971 190606088#0 190606088#1 184427443 190606083 655693840 655693841"/>
    </person>
    <person id="54" type="DEFAULT_PEDTYPE" depart="64.00">
        <walk edges="28710621#1 -23195751#1 23195751#2 -191959706#1 -191959706#0 996144772#1 191979127#0 28709107#1 28709107#0 -522833720#0 522833719 522833729#1 522833732#1 -522833738"/>
    </person>
    <person id="55" type="DEFAULT_PEDTYPE" depart="65.40">
        <walk edges="28999595#1 522833750#1 1132162842#1 -185271779#2 1000553424#0 1000553424#1 1000553425 522497449 23195328#0 1001467661 -545496366#1 322548792#6 322548792#4 -322548792#3 -322548792#2 28710410"/>
    </person>
    <person id="56" type="DEFAULT_PEDTYPE" depart="66.60">
        <walk edges="1149942855 647789889#0 998769531 998769533 998769540#1 998769540#0 998769535#0 998769535#1 1132162843#2 1132162844#1 1132162844#0 23195795 190606081 484335723#2 484335723#1 484335723#0 485720696 -485720694 655717650#1 655717650#0 32062050#1"/>
    </person>
    <person id="58" type="DEFAULT_PEDTYPE" depart="67.60">
        <walk edges="193099645#0 191871225#0 191871225#1 191871225#2 191871225#3 655693839 655693840 190606083 184427443 190606088#1 190606088#0 191785971 190606089 190606081 484335723#2 484335723#1 484335723#0 485720696 -397927055#0 191987468#1 539419137#1 190606073"/>
    </person>
    <person id="59" type="DEFAULT_PEDTYPE" depart="67.60">
        <walk edges="458676577#2 1000553426#1 1000553424#0 185271779#2 1132162842#1 1132162842#0"/>
    </person>
    <person id="60" type="DEFAULT_PEDTYPE" depart="67.80">
        <walk edges="655717640#1 484335723#2 190606081 23195795 1132162844#0 1132162844#1 1132162843#2 522833731#1 522833732#1 522833729#1 522833719 -522833720#0 191979121 191979122 23195803#1 23195803#2"/>
    </person>
    <person id="61" type="DEFAULT_PEDTYPE" depart="68.20">
        <walk edges="-322548792#1 322548792#2 -322548792#3 -322548792#4 322548792#6 998769529 54704028#0 998769538#0 998769538#1 28708934#0 1149633799 522833729#1 522833732#1"/>
    </person>
    <person id="62" type="DEFAULT_PEDTYPE" depart="68.20">
        <walk edges="193099645#0 191871225#0 -28998663#0 -28998663#1 353382752 1002422790 1002422788#1 1002422788#0 522833719 1149633799 28708934#0 998769538#1 -998769538#0 54704028#0 54704028#1 998769539 998769531 647789889#0 1149942855"/>
    </person>
    <person id="63" type="DEFAULT_PEDTYPE" depart="70.20">
        <walk edges="655693841 655693839 191871225#3 28998662#0 28998662#1 353382753 353382750#1 1002422788#1 1002422788#0 -522833720#0 28709107#0 28709107#1 191979127#0 996364918 23195754#5 23195752#1"/>
    </person>
    <person id="64" type="DEFAULT_PEDTYPE" depart="72.20">
        <walk edges="29033735 190606077#4 190606077#3 190606077#2 123592772#2 123592772#1 522431205 191987465#0 191987465#1 522833744 522833741#1 522833750#1 1132162843#1 1132162843#2 522833731#1 522833732#1 522833729#1 522833719 -522833720#0 28709107#0 28709107#1 191979127#0 996364918 23195754#5 23195752#1"/>
    </person>
    <person id="65" type="DEFAULT_PEDTYPE" depart="73.00">
        <walk edges="-522833753 191987465#0 191987465#1 522833744 522833741#1 522833750#1 1132162843#1 1132162843#2 522833731#1 522833732#1 522833729#1 522833719 1002422788#0 1002422788#1 1002422790 353382752 28998663#1 28998663#0 191871225#0 193099645#0"/>
    </person>
    <person id="66" type="DEFAULT_PEDTYPE" depart="74.40">
        <walk edges="-185271779#3 1132162844#2 1132162843#2 522833731#1 522833732#1 522833729#1 1149633799 28708934#0 998769538#1 545477613#0 545477613#1 545477613#2 23196319"/>
    </person>
    <person id="67" type="DEFAULT_PEDTYPE" depart="74.40">
        <walk edges="539483270 23196322#0 23196322#1 123592772#2"/>
    </person>
    <person id="68" type="DEFAULT_PEDTYPE" depart="75.00">
        <walk edges="-184427426#0 29033734#2 29033734#1 29033734#0 190606079#0 190606079#1 190606078#1"/>
    </person>
    <person id="69" type="DEFAULT_PEDTYPE" depart="76.00">
        <walk edges="23195755#0 -322548792#4 322548792#6 998769529 54704028#0 998769538#0 998769538#1 28708934#0 1149633799 522833719 1002422788#0 1002422788#1"/>
    </person>
    <person id="70" type="DEFAULT_PEDTYPE" depart="77.60">
        <walk edges="28710621#0 -23195751#1 23195751#2 -191959706#1 -191959706#0 996144772#1 191979127#0"/>
    </person>
    <person id="71" type="DEFAULT_PEDTYPE" depart="77.80">
        <walk edges="28710934 -191959712#0 191959714 522833721 -191979122 -191979121 -522833720#0 522833719 522833729#1 522833732#1 184427434#0 190606088#1 661212190 23195793"/>
    </person>
    <person id="72" type="DEFAULT_PEDTYPE" depart="78.00">
        <walk edges="191871225#0 -28998663#0 -28998663#1 353382752 1002422790 1002422788#1 1002422788#0 522833719 1149633799 28708934#0 998769538#1 -998769538#0 54704028#0 998769529 322548792#6 1149942834#1"/>
    </person>
    <person id="73" type="DEFAULT_PEDTYPE" depart="79.60">
        <walk edges="192464423 -191959706#0 996144772#1 191979127#3 191959704#0 117561950 167255138#1 995252087#1"/>
    </person>
    <person id="74" type="DEFAULT_PEDTYPE" depart="80.00">
        <walk edges="-397927055#0 -485720696 484335723#0 484335723#1 484335723#2 190606081 23195795 1132162844#0 1132162844#1 1132162843#2 522833731#1 522833732#1 522833729#1 1149633799 28708934#0 998769538#1 -998769538#0 54704028#0 998769529 322548792#6 322548792#4 -322548792#3 -322548792#2 28710410 -23195751#2 -23195751#1 28710621#0"/>
    </person>
    <person id="75" type="DEFAULT_PEDTYPE" depart="81.00">
        <walk edges="28710621#3 167255138#1 996022767 191959714 522833721 -191979122 -191979121 -522833720#0 522833719 522833729#1 522833732#1 522833731#1 1132162843#2 1132162843#1 522833750#1 522833741#1 522833744 -191987465#1 -191987465#0 522431205 191987466 29033732 23196322#0 -184427426#3 539483273"/>
    </person>
    <person id="76" type="DEFAULT_PEDTYPE" depart="81.00">
        <walk edges="28998662#3 28998662#2 28998662#1 28998662#0 191871225#3 655693839 655693840 190606083 184427443 190606088#1 190606088#0 191785971 190606089 190606081 484335723#2 484335723#1 484335723#0 485720696 485720694"/>
    </person>
    <person id="77" type="DEFAULT_PEDTYPE" depart="86.60">
        <walk edges="485720694 -485720696 484335723#0 484335723#1 484335723#2 190606081 23195795 1132162844#0 1132162844#1 1132162843#2 522833731#1 522833732#1 522833729#1 1149633799 28708934#0 998769538#1 -998769538#0 54704028#0 998769529 322548792#6 322548792#4 -322548792#3 -322548792#2 -322548792#1"/>
    </person>
    <person id="78" type="DEFAULT_PEDTYPE" depart="88.00">
        <walk edges="1149942855 647789889#0 998769531 998769539 54704028#1 54704028#0 998769538#0 998769538#1 28708934#0 1149633799 522833719 1002422788#0 1002422788#1 1002422790 353382752 28998663#1 28998663#0 191871225#0 193099645#0"/>
    </person>
    <person id="79" type="DEFAULT_PEDTYPE" depart="92.00">
        <walk edges="191959706#0 996144772#1 191979127#0 28709107#1 28709107#0 -522833720#0 522833719 522833729#1 522833732#1 522833731#1 23195794#1"/>
    </person>
    <person id="80" type="DEFAULT_PEDTYPE" depart="92.80">
        <walk edges="474164620#0 661212190 190606088#1 184427434#0 522833732#1 522833729#1 522833719 -522833720#0 28709107#0 28709107#1 191979127#0 996144772#1 23195752#0"/>
    </person>
    <person id="81" type="DEFAULT_PEDTYPE" depart="93.00">
        <walk edges="23195499#1 -23195499#1 23195499#2 -1144028925 485720696 539419136 539419145#1 655717649#3 655717649#4"/>
    </person>
    <person id="82" type="DEFAULT_PEDTYPE" depart="93.60">
        <walk edges="-322548792#3 -322548792#4 322548792#6 545496366#1 1001467661 23195328#0 522497449 1000553425 1000553424#1 1000553424#0 185271779#2 1132162842#1 522833750#1 522833741#1 522833744 -191987465#1 -191987465#0 522431205 123592772#1 123592772#2 190606077#2 190606077#3 587561458"/>
    </person>
    <person id="83" type="DEFAULT_PEDTYPE" depart="95.00">
        <walk edges="1001467661 -545496366#1 322548792#6 322548792#4 -322548792#3 -322548792#2 28710410 -23195751#2 -23195751#1 28710621#0"/>
    </person>
    <person id="84" type="DEFAULT_PEDTYPE" depart="95.80">
        <walk edges="539419136 -485720696 484335723#0 484335723#1 484335723#2 190606081 23195795 1132162844#0 1132162844#1 1132162843#2 522833731#1 522833732#1 522833729#1 522833719 -522833720#0 191979121 191979122 522833721 -191959714 996022767 996022769#1"/>
    </person>
    <person id="85" type="DEFAULT_PEDTYPE" depart="97.40">
        <walk edges="23195754#4 23195754#5 23195752#0 -191959706#0 191959706#1 28709110"/>
    </person>
    <person id="86" type="DEFAULT_PEDTYPE" depart="98.20">
        <walk edges="28717086 998769540#0 998769535#0 998769535#1 522833731#1 522833732#1 522833729#1 522833719 1002422788#0 1002422788#1 1002422790 353382752 28998663#1 28998663#0 191871225#0 193099645#1"/>
    </person>
    <person id="87" type="DEFAULT_PEDTYPE" depart="98.80">
        <walk edges="539419138 539419137#1 191987468#1 397927055#0 -485720696 484335723#0 484335723#1 484335723#2 190606081 190606089 191785971 190606088#0 190606088#1 184427443 23195792#0"/>
    </person>
    <person id="88" type="DEFAULT_PEDTYPE" depart="98.80">
        <walk edges="474164620#2 661212190 190606088#1 184427443 190606083 655693840 655693839 191871225#3 28998662#0 28998662#1 353382753 353382750#1 1002422788#1 1144160275#1"/>
    </person>
    <person id="89" type="DEFAULT_PEDTYPE" depart="104.80">
        <walk edges="998769532 998769540#1 28717086 1000553425 1000553424#1 1000553424#0 185271779#2 1132162842#1 522833750#1 522833741#1 522833744 -191987465#1 191987465#0 522431205 123592772#1 123592772#2"/>
    </person>
    <person id="90" type="DEFAULT_PEDTYPE" depart="105.20">
        <walk edges="28709110 28710410 322548792#2 322548792#3 -322548792#4 322548792#6 998769529 54704028#0 998769538#0 998769538#1 28708934#0 28708934#1"/>
    </person>
    <person id="91" type="DEFAULT_PEDTYPE" depart="105.80">
        <walk edges="190606085 1132162842#0 522833750#1 -522833746"/>
    </person>
    <person id="92" type="DEFAULT_PEDTYPE" depart="105.80">
        <walk edges="190606073 539419137#1 191987468#1 397927055#0 -485720696 484335723#0 484335723#1 484335723#2 190606085 1132162842#0 1132162842#1 -185271779#2 1000553424#0 1000553424#1 1000553425 522497449 23195328#0 1001467661"/>
    </person>
    <person id="93" type="DEFAULT_PEDTYPE" depart="109.80">
        <walk edges="23195804#0 1144160277 23195803#1 -191979122 -191979121 -522833720#0 522833719 522833729#1 522833732#1 184427434#0 190606088#1 661212190 -474164620#0 23195798"/>
    </person>
    <person id="94" type="DEFAULT_PEDTYPE" depart="110.40">
        <walk edges="-1144028925 484335723#0 484335723#1 484335723#2 190606081 190606089 191785971 190606088#0 190606088#1 184427443 23195792#0"/>
    </person>
    <person id="95" type="DEFAULT_PEDTYPE" depart="111.60">
        <walk edges="-485720694 -485720696 484335723#0 484335723#1 484335723#2 190606081 23195795 1132162844#0 1132162844#1 1132162843#2 522833731#1 522833732#1 522833729#1 -998769537"/>
    </person>
    <person id="96" type="DEFAULT_PEDTYPE" depart="114.20">
        <walk edges="-522833720#0 522833719 522833729#1 522833732#1 522833731#1 1132162843#2 1132162843#1 522833750#1 522833741#1 522833744 23195499#0 -23195499#1 23195734 190606077#0"/>
    </person>
    <person id="98" type="DEFAULT_PEDTYPE" depart="118.00">
        <walk edges="190606078#1 539419137#1 191987468#1 397927055#0 -485720696 484335723#0 484335723#1 484335723#2 23195799#0"/>
    </person>
    <person id="99" type="DEFAULT_PEDTYPE" depart="118.40">
        <walk edges="184427426#1 29033734#2 29033734#1 29033734#0 190606079#0 190606079#1 539419137#1 191987468#1 397927055#0 -485720696 484335723#0 484335723#1 484335723#2 190606085 1132162842#0"/>
    </person>
    <person id="100" type="DEFAULT_PEDTYPE" depart="119.00">
        <walk edges="1132162842#0 190606085 484335723#2 484335723#1 484335723#0 -1144028925 23195499#2 23195734 461160629"/>
    </person>
    <person id="101" type="DEFAULT_PEDTYPE" depart="119.60">
        <walk edges="23195800 191871225#2 191871225#3 655693839 655693840 190606083 184427443 190606088#1 190606088#0 191785971 190606089 190606081 484335723#2 655717640#1 655717639 545476129#0 655717644#1"/>
    </person>
    <person id="102" type="DEFAULT_PEDTYPE" depart="120.40">
        <walk edges="-32062050#0 655717650#0 655717649#1 539419146#2 539419145#1 655717649#3 655717649#4 655717648 539419147#1"/>
    </person>
    <person id="103" type="DEFAULT_PEDTYPE" depart="122.40">
        <walk edges="539419146#1 539419147#1 191987468#1 397927055#0 -485720696 484335723#0 484335723#1 484335723#2 190606081 23195795 1132162844#0 1132162844#1 1132162843#2 998769535#1 998769535#0"/>
    </person>
    <person id="104" type="DEFAULT_PEDTYPE" depart="134.40">
        <walk edges="-184427426#3 23196322#0 29033732 -191987466 522431205 191987465#0 191987465#1 28719125#1 522431207 29241566"/>
    </person>
    <person id="105" type="DEFAULT_PEDTYPE" depart="136.60">
        <walk edges="998769535#0 998769540#0 28717086 1000553425 1000553424#1 1000553424#0 185271779#2 1132162842#1 522833750#1 522833741#1 522833744 23195499#0 -23195499#1 23195734 461160629"/>
    </person>
    <person id="106" type="DEFAULT_PEDTYPE" depart="136.80">
        <walk edges="996364918 23195752#2 522833721 191959714"/>
    </person>
    <person id="107" type="DEFAULT_PEDTYPE" depart="138.20">
        <walk edges="23195794#0 190606088#0 190606088#1 184427443 190606083 655693840 655693839"/>
    </person>
    <person id="108" type="DEFAULT_PEDTYPE" depart="138.40">
        <walk edges="28709110"/>
    </person>
    <person id="109" type="DEFAULT_PEDTYPE" depart="139.60">
        <walk edges="-998769537 522833729#1 522833732#1 522833731#1 1132162843#2 1132162843#1 522833750#1 522833741#1 522833744 23195499#0 23195499#1"/>
    </person>
    <person id="110" type="DEFAULT_PEDTYPE" depart="140.00">
        <walk edges="996022767 191959714 522833721 -191979122 -191979121 28709107#0 452767836#1 452767836#0 545477613#2 545477613#1 545477613#0 -998769538#0 54704028#0 998769529 28708932"/>
    </person>
    <person id="111" type="DEFAULT_PEDTYPE" depart="140.40">
        <walk edges="191979127#0 996144772#1 -191959706#0 191959706#1 28709110 322548792#1"/>
    </person>
    <person id="112" type="DEFAULT_PEDTYPE" depart="141.20">
        <walk edges="-29072597#1 29072597#1 184427426#3 23196322#0 29033732 -191987466 522431205 191987465#0 191987465#1 522833744 522833741#1 522833750#1 1132162842#1 -185271779#2 1000553424#0 1000553424#1 1000553425 522497449 23195328#0 1001467661 -545496366#1 322548792#6 322548792#4 23195755#0"/>
    </person>
    <person id="113" type="DEFAULT_PEDTYPE" depart="142.60">
        <walk edges="28718922#1 522833750#1 1132162842#1 -185271779#2 1000553424#0 1000553424#1 1000553425 522497449 23195328#0 1001467661 -545496366#1 322548792#6 322548792#4 -322548792#3 -322548792#2 28710410 -23195751#2 -23195751#1 28710621#0"/>
    </person>
    <person id="114" type="DEFAULT_PEDTYPE" depart="145.00">
        <walk edges="191979127#3 23195752#2 23195803#1 1144160277"/>
    </person>