<?xml version="1.0" encoding="UTF-8"?>

<!-- generated on 2023-04-06 18:38:35.989771 by randomTrips.py v1_15_0+0682-ef022823415
<configuration>
    <end value="1000"/>
    <length value="True"/>
    <net-file value="/home/toore/Tirocinio_SUMO/Scenario/scenario_per_tesi/2023-03-31-10-37-43/osm.net.xml"/>
    <pedestrians value="True"/>
    <period value="1.4"/>
    <random value="True"/>
    <random-depart value="True"/>
    <route-file value="peds.rou.xml"/>
    <seed value="10000"/>
    <trip-attributes value="type=&quot;DEFAULT_PEDTYPE&quot;"/>
</configuration>
-->

<routes xmlns:xsi="http://www.w3.org/2001/XMLSchema-instance" xsi:noNamespaceSchemaLocation="http://sumo.dlr.de/xsd/routes_file.xsd">
    <person id="0" depart="0.60" type="DEFAULT_PEDTYPE">
        <walk from="28709110" to="23195801"/>
    </person>
    <person id="1" depart="2.20" type="DEFAULT_PEDTYPE">
        <walk from="998769532" to="-522833746"/>
    </person>
    <person id="2" depart="3.20" type="DEFAULT_PEDTYPE">
        <walk from="28709107#0" to="995252087#1"/>
    </person>
    <person id="3" depart="3.40" type="DEFAULT_PEDTYPE">
        <walk from="28710934" to="-23195751#0"/>
    </person>
    <person id="4" depart="4.60" type="DEFAULT_PEDTYPE">
        <walk from="191871225#0" to="996144773"/>
    </person>
    <person id="5" depart="5.40" type="DEFAULT_PEDTYPE">
        <walk from="-28718922#1" to="191979123#1"/>
    </person>
    <person id="6" depart="6.20" type="DEFAULT_PEDTYPE">
        <walk from="184427426#1" to="23195752#1"/>
    </person>
    <person id="7" depart="7.20" type="DEFAULT_PEDTYPE">
        <walk from="545476129#5" to="184427434#0"/>
    </person>
    <person id="8" depart="9.40" type="DEFAULT_PEDTYPE">
        <walk from="995252087#1" to="23195801"/>
    </person>
    <person id="9" depart="11.00" type="DEFAULT_PEDTYPE">
        <walk from="-32062050#0" to="23196319"/>
    </person>
    <person id="10" depart="11.80" type="DEFAULT_PEDTYPE">
        <walk from="-322548792#1" to="545476129#5"/>
    </person>
    <person id="11" depart="13.20" type="DEFAULT_PEDTYPE">
        <walk from="655717643" to="545476129#5"/>
    </person>
    <person id="12" depart="13.60" type="DEFAULT_PEDTYPE">
        <walk from="28710621#2" to="-522833753"/>
    </person>
    <person id="13" depart="14.60" type="DEFAULT_PEDTYPE">
        <walk from="28710621#0" to="23195798"/>
    </person>
    <person id="14" depart="14.80" type="DEFAULT_PEDTYPE">
        <walk from="647789892" to="-522833746"/>
    </person>
    <person id="15" depart="14.80" type="DEFAULT_PEDTYPE">
        <walk from="522833719" to="539483278"/>
    </person>
    <person id="16" depart="15.40" type="DEFAULT_PEDTYPE">
        <walk from="190606073" to="28710621#1"/>
    </person>
    <person id="17" depart="16.40" type="DEFAULT_PEDTYPE">
        <walk from="23195501#1" to="998769531"/>
    </person>
    <person id="18" depart="22.00" type="DEFAULT_PEDTYPE">
        <walk from="-23195751#0" to="23195792#0"/>
    </person>
    <person id="19" depart="25.60" type="DEFAULT_PEDTYPE">
        <walk from="996364918" to="191959712#0"/>
    </person>
    <person id="20" depart="26.00" type="DEFAULT_PEDTYPE">
        <walk from="655693841" to="996022769#1"/>
    </person>
    <person id="21" depart="27.80" type="DEFAULT_PEDTYPE">
        <walk from="190606085" to="28998662#3"/>
    </person>
    <person id="22" depart="28.00" type="DEFAULT_PEDTYPE">
        <walk from="28999595#1" to="-322548792#1"/>
    </person>
    <person id="23" depart="28.60" type="DEFAULT_PEDTYPE">
        <walk from="-32062050#0" to="1132162846"/>
    </person>
    <person id="24" depart="29.20" type="DEFAULT_PEDTYPE">
        <walk from="29241566" to="28708932"/>
    </person>
    <person id="25" depart="29.40" type="DEFAULT_PEDTYPE">
        <walk from="192464423" to="-522833721"/>
    </person>
    <person id="26" depart="30.00" type="DEFAULT_PEDTYPE">
        <walk from="-191979123#0" to="-28718922#1"/>
    </person>
    <person id="27" depart="30.40" type="DEFAULT_PEDTYPE">
        <walk from="190606078#1" to="23195328#2"/>
    </person>
    <person id="28" depart="30.60" type="DEFAULT_PEDTYPE">
        <walk from="-998769537" to="397927055#0"/>
    </person>
    <person id="29" depart="30.80" type="DEFAULT_PEDTYPE">
        <walk from="-191987469#1" to="1132162846"/>
    </person>
    <person id="30" depart="33.80" type="DEFAULT_PEDTYPE">
        <walk from="995252087#1" to="29072594"/>
    </person>
    <person id="31" depart="34.40" type="DEFAULT_PEDTYPE">
        <walk from="23195794#1" to="23195794#0"/>
    </person>
    <person id="32" depart="34.60" type="DEFAULT_PEDTYPE">
        <walk from="539419144" to="522833719"/>
    </person>
    <person id="33" depart="34.60" type="DEFAULT_PEDTYPE">
        <walk from="192464423" to="23195503"/>
    </person>
    <person id="34" depart="38.20" type="DEFAULT_PEDTYPE">
        <walk from="998798218" to="1144160277"/>
    </person>
    <person id="35" depart="38.60" type="DEFAULT_PEDTYPE">
        <walk from="388909094" to="28999595#1"/>
    </person>
    <person id="36" depart="39.20" type="DEFAULT_PEDTYPE">
        <walk from="23195800" to="1144160275#0"/>
    </person>
    <person id="37" depart="42.00" type="DEFAULT_PEDTYPE">
        <walk from="452767836#1" to="996144772#1"/>
    </person>
    <person id="38" depart="46.80" type="DEFAULT_PEDTYPE">
        <walk from="28710621#0" to="29072597#1"/>
    </person>
    <person id="39" depart="47.40" type="DEFAULT_PEDTYPE">
        <walk from="29072597#1" to="23195328#2"/>
    </person>
    <person id="40" depart="49.60" type="DEFAULT_PEDTYPE">
        <walk from="23683441#1" to="23195751#1"/>
    </person>
    <person id="41" depart="50.60" type="DEFAULT_PEDTYPE">
        <walk from="23195499#1" to="-28710790"/>
    </person>
    <person id="42" depart="51.20" type="DEFAULT_PEDTYPE">
        <walk from="28710410" to="23195794#1"/>
    </person>
    <person id="43" depart="51.80" type="DEFAULT_PEDTYPE">
        <walk from="28710621#2" to="184427426#3"/>
    </person>
    <person id="44" depart="51.80" type="DEFAULT_PEDTYPE">
        <walk from="322548792#1" to="23195736"/>
    </person>
    <person id="45" depart="53.40" type="DEFAULT_PEDTYPE">
        <walk from="-522833753" to="1149437440"/>
    </person>
    <person id="46" depart="53.60" type="DEFAULT_PEDTYPE">
        <walk from="23196319" to="23195801"/>
    </person>
    <person id="47" depart="54.20" type="DEFAULT_PEDTYPE">
        <walk from="28710621#0" to="28998663#0"/>
    </person>
    <person id="48" depart="54.20" type="DEFAULT_PEDTYPE">
        <walk from="522833750#1" to="996022769#1"/>
    </person>
    <person id="49" depart="55.00" type="DEFAULT_PEDTYPE">
        <walk from="28710410" to="661212190"/>
    </person>
    <person id="50" depart="55.40" type="DEFAULT_PEDTYPE">
        <walk from="997944679" to="545476129#5"/>
    </person>
    <person id="51" depart="57.60" type="DEFAULT_PEDTYPE">
        <walk from="123592772#2" to="23195499#1"/>
    </person>
    <person id="52" depart="59.80" type="DEFAULT_PEDTYPE">
        <walk from="-191959706#1" to="-167113237"/>
    </person>
    <person id="53" depart="60.00" type="DEFAULT_PEDTYPE">
        <walk from="29072597#1" to="655693841"/>
    </person>
    <person id="54" depart="64.00" type="DEFAULT_PEDTYPE">
        <walk from="28710621#1" to="-522833738"/>
    </person>
    <person id="55" depart="65.40" type="DEFAULT_PEDTYPE">
        <walk from="28999595#1" to="28710410"/>
    </person>
    <person id="56" depart="66.60" type="DEFAULT_PEDTYPE">
        <walk from="1149942855" to="32062050#1"/>
    </person>
    <person id="57" depart="67.20" type="DEFAULT_PEDTYPE">
        <walk from="29072594" to="-184427426#4"/>
    </person>
    <person id="58" depart="67.60" type="DEFAULT_PEDTYPE">
        <walk from="193099645#0" to="190606073"/>
    </person>
    <person id="59" depart="67.60" type="DEFAULT_PEDTYPE">
        <walk from="458676577#2" to="1132162842#0"/>
    </person>
    <person id="60" depart="67.80" type="DEFAULT_PEDTYPE">
        <walk from="655717640#1" to="23195803#2"/>
    </person>
    <person id="61" depart="68.20" type="DEFAULT_PEDTYPE">
        <walk from="-322548792#1" to="522833732#1"/>
    </person>
    <person id="62" depart="68.20" type="DEFAULT_PEDTYPE">
        <walk from="193099645#0" to="1149942855"/>
    </person>
    <person id="63" depart="70.20" type="DEFAULT_PEDTYPE">
        <walk from="655693841" to="23195752#1"/>
    </person>
    <person id="64" depart="72.20" type="DEFAULT_PEDTYPE">
        <walk from="29033735" to="23195752#1"/>
    </person>
    <person id="65" depart="73.00" type="DEFAULT_PEDTYPE">
        <walk from="-522833753" to="193099645#0"/>
    </person>
    <person id="66" depart="74.40" type="DEFAULT_PEDTYPE">
        <walk from="-185271779#3" to="23196319"/>
    </person>
    <person id="67" depart="74.40" type="DEFAULT_PEDTYPE">
        <walk from="539483270" to="123592772#2"/>
    </person>
    <person id="68" depart="75.00" type="DEFAULT_PEDTYPE">
        <walk from="-184427426#0" to="190606078#1"/>
    </person>
    <person id="69" depart="76.00" type="DEFAULT_PEDTYPE">
        <walk from="23195755#0" to="1002422788#1"/>
    </person>
    <person id="70" depart="77.60" type="DEFAULT_PEDTYPE">
        <walk from="28710621#0" to="191979127#0"/>
    </person>
    <person id="71" depart="77.80" type="DEFAULT_PEDTYPE">
        <walk from="28710934" to="23195793"/>
    </person>
    <person id="72" depart="78.00" type="DEFAULT_PEDTYPE">
        <walk from="191871225#0" to="1149942834#1"/>
    </person>
    <person id="73" depart="79.60" type="DEFAULT_PEDTYPE">
        <walk from="192464423" to="995252087#1"/>
    </person>
    <person id="74" depart="80.00" type="DEFAULT_PEDTYPE">
        <walk from="-397927055#0" to="28710621#0"/>
    </person>
    <person id="75" depart="81.00" type="DEFAULT_PEDTYPE">
        <walk from="28710621#3" to="539483273"/>
    </person>
    <person id="76" depart="81.00" type="DEFAULT_PEDTYPE">
        <walk from="28998662#3" to="485720694"/>
    </person>
    <person id="77" depart="86.60" type="DEFAULT_PEDTYPE">
        <walk from="485720694" to="-322548792#1"/>
    </person>
    <person id="78" depart="88.00" type="DEFAULT_PEDTYPE">
        <walk from="1149942855" to="193099645#0"/>
    </person>
    <person id="79" depart="92.00" type="DEFAULT_PEDTYPE">
        <walk from="191959706#0" to="23195794#1"/>
    </person>
    <person id="80" depart="92.80" type="DEFAULT_PEDTYPE">
        <walk from="474164620#0" to="23195752#0"/>
    </person>
    <person id="81" depart="93.00" type="DEFAULT_PEDTYPE">
        <walk from="23195499#1" to="655717649#4"/>
    </person>
    <person id="82" depart="93.60" type="DEFAULT_PEDTYPE">
        <walk from="-322548792#3" to="587561458"/>
    </person>
    <person id="83" depart="95.00" type="DEFAULT_PEDTYPE">
        <walk from="1001467661" to="28710621#0"/>
    </person>
    <person id="84" depart="95.80" type="DEFAULT_PEDTYPE">
        <walk from="539419136" to="996022769#1"/>
    </person>
    <person id="85" depart="97.40" type="DEFAULT_PEDTYPE">
        <walk from="23195754#4" to="28709110"/>
    </person>
    <person id="86" depart="98.20" type="DEFAULT_PEDTYPE">
        <walk from="28717086" to="193099645#1"/>
    </person>
    <person id="87" depart="98.80" type="DEFAULT_PEDTYPE">
        <walk from="539419138" to="23195792#0"/>
    </person>
    <person id="88" depart="98.80" type="DEFAULT_PEDTYPE">
        <walk from="474164620#2" to="1144160275#1"/>
    </person>
    <person id="89" depart="104.80" type="DEFAULT_PEDTYPE">
        <walk from="998769532" to="123592772#2"/>
    </person>
    <person id="90" depart="105.20" type="DEFAULT_PEDTYPE">
        <walk from="28709110" to="28708934#1"/>
    </person>
    <person id="91" depart="105.80" type="DEFAULT_PEDTYPE">
        <walk from="190606085" to="-522833746"/>
    </person>
    <person id="92" depart="105.80" type="DEFAULT_PEDTYPE">
        <walk from="190606073" to="1001467661"/>
    </person>
    <person id="93" depart="109.80" type="DEFAULT_PEDTYPE">
        <walk from="23195804#0" to="23195798"/>
    </person>
    <person id="94" depart="110.40" type="DEFAULT_PEDTYPE">
        <walk from="-1144028925" to="23195792#0"/>
    </person>
    <person id="95" depart="111.60" type="DEFAULT_PEDTYPE">
        <walk from="-485720694" to="-998769537"/>
    </person>
    <person id="96" depart="114.20" type="DEFAULT_PEDTYPE">
        <walk from="-522833720#0" to="190606077#0"/>
    </person>
    <person id="97" depart="117.40" type="DEFAULT_PEDTYPE">
        <walk from="29072594" to="-184427426#0"/>
    </person>
    <person id="98" depart="118.00" type="DEFAULT_PEDTYPE">
        <walk from="190606078#1" to="23195799#0"/>
    </person>
    <person id="99" depart="118.40" type="DEFAULT_PEDTYPE">
        <walk from="184427426#1" to="1132162842#0"/>
    </person>
    <person id="100" depart="119.00" type="DEFAULT_PEDTYPE">
        <walk from="1132162842#0" to="461160629"/>
    </person>
    <person id="101" depart="119.60" type="DEFAULT_PEDTYPE">
        <walk from="23195800" to="655717644#1"/>
    </person>
    <person id="102" depart="120.40" type="DEFAULT_PEDTYPE">
        <walk from="-32062050#0" to="539419147#1"/>
    </person>
    <person id="103" depart="122.40" type="DEFAULT_PEDTYPE">
        <walk from="539419146#1" to="998769535#0"/>
    </person>
    <person id="104" depart="134.40" type="DEFAULT_PEDTYPE">
        <walk from="-184427426#3" to="29241566"/>
    </person>
    <person id="105" depart="136.60" type="DEFAULT_PEDTYPE">
        <walk from="998769535#0" to="461160629"/>
    </person>
    <person id="106" depart="136.80" type="DEFAULT_PEDTYPE">
        <walk from="996364918" to="191959714"/>
    </person>
    <person id="107" depart="138.20" type="DEFAULT_PEDTYPE">
        <walk from="23195794#0" to="655693839"/>
    </person>
    <person id="108" depart="138.40" type="DEFAULT_PEDTYPE">
        <walk from="28709110" to="28709110"/>
    </person>
    <person id="109" depart="139.60" type="DEFAULT_PEDTYPE">
        <walk from="-998769537" to="23195499#1"/>
    </person>
    <person id="110" depart="140.00" type="DEFAULT_PEDTYPE">
        <walk from="996022767" to="28708932"/>
    </person>
    <person id="111" depart="140.40" type="DEFAULT_PEDTYPE">
        <walk from="191979127#0" to="322548792#1"/>
    </person>
    <person id="112" depart="141.20" type="DEFAULT_PEDTYPE">
        <walk from="-29072597#1" to="23195755#0"/>
    </person>
    <person id="113" depart="142.60" type="DEFAULT_PEDTYPE">
        <walk from="28718922#1" to="28710621#0"/>
    </person>
    <person id="114" depart="145.00" type="DEFAULT_PEDTYPE">
        <walk from="191979127#3" to="1144160277"/>
    </person>
    <person id="115" depart="145.80" type="DEFAULT_PEDTYPE">
        <walk from="23195749#1" to="23195803#2"/>
    </person>
    <person id="116" depart="147.20" type="DEFAULT_PEDTYPE">
        <walk from="998769536#1" to="655693841"/>
    </person>
    <person id="117" depart="151.40" type="DEFAULT_PEDTYPE">
        <walk from="1144160275#1" to="1000553425"/>
    </person>
    <person id="118" depart="154.60" type="DEFAULT_PEDTYPE">
        <walk from="23195792#0" to="23195792#0"/>
    </person>
    <person id="119" depart="155.60" type="DEFAULT_PEDTYPE">
        <walk from="-184427426#4" to="322548792#1"/>
    </person>
    <person id="120" depart="155.60" type="DEFAULT_PEDTYPE">
        <walk from="28709110" to="23195755#0"/>
    </person>
    <person id="121" depart="158.40" type="DEFAULT_PEDTYPE">
        <walk from="23195499#2" to="23195800"/>
    </person>
    <person id="122" depart="160.80" type="DEFAULT_PEDTYPE">
        <walk from="23195501#1" to="23195795"/>
    </person>
    <person id="123" depart="161.00" type="DEFAULT_PEDTYPE">
        <walk from="190606073" to="655717643"/>
    </person>
    <person id="124" depart="164.00" type="DEFAULT_PEDTYPE">
        <walk from="-23195496" to="539419137#1"/>
    </person>
    <person id="125" depart="165.20" type="DEFAULT_PEDTYPE">
        <walk from="-998769537" to="23195503"/>
    </person>
    <person id="126" depart="166.60" type="DEFAULT_PEDTYPE">
        <walk from="23195499#1" to="191959704#1"/>
    </person>
    <person id="127" depart="166.80" type="DEFAULT_PEDTYPE">
        <walk from="23195792#0" to="28710755#2"/>
    </person>
    <person id="128" depart="169.00" type="DEFAULT_PEDTYPE">
        <walk from="23195501#1" to="190606077#5"/>
    </person>
    <person id="129" depart="170.20" type="DEFAULT_PEDTYPE">
        <walk from="539419146#1" to="-32062050#0"/>
    </person>
    <person id="130" depart="171.00" type="DEFAULT_PEDTYPE">
        <walk from="998769531" to="998769533"/>
    </person>
    <person id="131" depart="171.80" type="DEFAULT_PEDTYPE">
        <walk from="23195499#1" to="54704028#1"/>
    </person>
    <person id="132" depart="174.00" type="DEFAULT_PEDTYPE">
        <walk from="123592772#2" to="28999595#1"/>
    </person>
    <person id="133" depart="175.40" type="DEFAULT_PEDTYPE">
        <walk from="-322548792#2" to="23195755#0"/>
    </person>
    <person id="134" depart="177.40" type="DEFAULT_PEDTYPE">
        <walk from="1149942855" to="28710755#2"/>
    </person>
    <person id="135" depart="178.80" type="DEFAULT_PEDTYPE">
        <walk from="1149634794#1" to="-28710755#0"/>
    </person>
    <person id="136" depart="180.00" type="DEFAULT_PEDTYPE">
        <walk from="28999595#1" to="23195336#1"/>
    </person>
    <person id="137" depart="181.80" type="DEFAULT_PEDTYPE">
        <walk from="1149437440" to="-23195496"/>
    </person>
    <person id="138" depart="182.60" type="DEFAULT_PEDTYPE">
        <walk from="185271779#4" to="28710621#1"/>
    </person>
    <person id="139" depart="182.60" type="DEFAULT_PEDTYPE">
        <walk from="1002422788#1" to="522833752#1"/>
    </person>
    <person id="140" depart="183.80" type="DEFAULT_PEDTYPE">
        <walk from="191987465#0" to="995252087#1"/>
    </person>
    <person id="141" depart="185.40" type="DEFAULT_PEDTYPE">
        <walk from="23195800" to="996022767"/>
    </person>
    <person id="142" depart="185.60" type="DEFAULT_PEDTYPE">
        <walk from="-191959706#0" to="23195795"/>
    </person>
    <person id="143" depart="187.20" type="DEFAULT_PEDTYPE">
        <walk from="-522833721" to="184427426#3"/>
    </person>
    <person id="144" depart="187.20" type="DEFAULT_PEDTYPE">
        <walk from="539419138" to="-23195496"/>
    </person>
    <person id="145" depart="189.00" type="DEFAULT_PEDTYPE">
        <walk from="23195793" to="545477613#1"/>
    </person>
    <person id="146" depart="192.60" type="DEFAULT_PEDTYPE">
        <walk from="-28710755#2" to="28710621#0"/>
    </person>
    <person id="147" depart="195.80" type="DEFAULT_PEDTYPE">
        <walk from="23195793" to="-184427426#4"/>
    </person>
    <person id="148" depart="196.00" type="DEFAULT_PEDTYPE">
        <walk from="522833721" to="23195794#0"/>
    </person>
    <person id="149" depart="197.00" type="DEFAULT_PEDTYPE">
        <walk from="1144028925" to="23195751#0"/>
    </person>
    <person id="150" depart="197.60" type="DEFAULT_PEDTYPE">
        <walk from="655717649#6" to="23195798"/>
    </person>
    <person id="151" depart="197.80" type="DEFAULT_PEDTYPE">
        <walk from="190606077#0" to="23195801"/>
    </person>
    <person id="152" depart="200.00" type="DEFAULT_PEDTYPE">
        <walk from="461160629" to="998769532"/>
    </person>
    <person id="153" depart="200.20" type="DEFAULT_PEDTYPE">
        <walk from="23195800" to="29033731"/>
    </person>
    <person id="154" depart="200.40" type="DEFAULT_PEDTYPE">
        <walk from="192464423" to="29033732"/>
    </person>
    <person id="155" depart="201.60" type="DEFAULT_PEDTYPE">
        <walk from="29241566" to="23195792#0"/>
    </person>
    <person id="156" depart="202.20" type="DEFAULT_PEDTYPE">
        <walk from="322548792#1" to="23195755#0"/>
    </person>
    <person id="157" depart="208.60" type="DEFAULT_PEDTYPE">
        <walk from="28710621#0" to="452767836#1"/>
    </person>
    <person id="158" depart="209.00" type="DEFAULT_PEDTYPE">
        <walk from="-522833752#1" to="23195799#0"/>
    </person>
    <person id="159" depart="210.60" type="DEFAULT_PEDTYPE">
        <walk from="-28710790" to="29033732"/>
    </person>
    <person id="160" depart="213.20" type="DEFAULT_PEDTYPE">
        <walk from="184427426#3" to="-167113237"/>
    </person>
    <person id="161" depart="214.60" type="DEFAULT_PEDTYPE">
        <walk from="998769540#1" to="23195792#0"/>
    </person>
    <person id="162" depart="215.80" type="DEFAULT_PEDTYPE">
        <walk from="655717644#1" to="192464423"/>
    </person>
    <person id="163" depart="216.00" type="DEFAULT_PEDTYPE">
        <walk from="28710621#1" to="-191959714"/>
    </person>
    <person id="164" depart="216.60" type="DEFAULT_PEDTYPE">
        <walk from="29241566" to="1149437440"/>
    </person>
    <person id="165" depart="218.40" type="DEFAULT_PEDTYPE">
        <walk from="998769540#1" to="1144160277"/>
    </person>
    <person id="166" depart="220.40" type="DEFAULT_PEDTYPE">
        <walk from="193099645#0" to="28710621#2"/>
    </person>
    <person id="167" depart="221.20" type="DEFAULT_PEDTYPE">
        <walk from="28710621#3" to="584987256"/>
    </person>
    <person id="168" depart="221.80" type="DEFAULT_PEDTYPE">
        <walk from="28710621#1" to="-522833746"/>
    </person>
    <person id="169" depart="224.00" type="DEFAULT_PEDTYPE">
        <walk from="184427434#0" to="23195804#0"/>
    </person>
    <person id="170" depart="229.40" type="DEFAULT_PEDTYPE">
        <walk from="184427434#0" to="655717644#1"/>
    </person>
    <person id="171" depart="229.60" type="DEFAULT_PEDTYPE">
        <walk from="-23195799#0" to="32062050#1"/>
    </person>
    <person id="172" depart="232.00" type="DEFAULT_PEDTYPE">
        <walk from="23195501#1" to="28719125#0"/>
    </person>
    <person id="173" depart="232.40" type="DEFAULT_PEDTYPE">
        <walk from="-32062050#0" to="190606077#0"/>
    </person>
    <person id="174" depart="234.80" type="DEFAULT_PEDTYPE">
        <walk from="23195755#0" to="23195800"/>
    </person>
    <person id="175" depart="236.40" type="DEFAULT_PEDTYPE">
        <walk from="23195499#2" to="23195801"/>
    </person>
    <person id="176" depart="238.00" type="DEFAULT_PEDTYPE">
        <walk from="-28719125#0" to="123592772#1"/>
    </person>
    <person id="177" depart="238.00" type="DEFAULT_PEDTYPE">
        <walk from="522833731#1" to="23195499#2"/>
    </person>
    <person id="178" depart="239.80" type="DEFAULT_PEDTYPE">
        <walk from="29033734#2" to="-184427426#4"/>
    </person>
    <person id="179" depart="240.00" type="DEFAULT_PEDTYPE">
        <walk from="23195328#1" to="23195803#2"/>
    </person>
    <person id="180" depart="242.20" type="DEFAULT_PEDTYPE">
        <walk from="539419138" to="23195801"/>
    </person>
    <person id="181" depart="245.60" type="DEFAULT_PEDTYPE">
        <walk from="184427434#0" to="1144028925"/>
    </person>
    <person id="182" depart="247.80" type="DEFAULT_PEDTYPE">
        <walk from="-167113237" to="458676577#2"/>
    </person>
    <person id="183" depart="248.20" type="DEFAULT_PEDTYPE">
        <walk from="995252087#1" to="23196319"/>
    </person>
    <person id="184" depart="248.80" type="DEFAULT_PEDTYPE">
        <walk from="23195499#1" to="539419136"/>
    </person>
    <person id="185" depart="251.40" type="DEFAULT_PEDTYPE">
        <walk from="28710621#1" to="28710621#0"/>
    </person>
    <person id="186" depart="252.00" type="DEFAULT_PEDTYPE">
        <walk from="28709110" to="-23196319"/>
    </person>
    <person id="187" depart="253.60" type="DEFAULT_PEDTYPE">
        <walk from="655717643" to="28998663#0"/>
    </person>
    <person id="188" depart="256.00" type="DEFAULT_PEDTYPE">
        <walk from="539483278" to="545476129#4"/>
    </person>
    <person id="189" depart="256.40" type="DEFAULT_PEDTYPE">
        <walk from="539483278" to="1144160277"/>
    </person>
    <person id="190" depart="257.20" type="DEFAULT_PEDTYPE">
        <walk from="-435838563" to="998769529"/>
    </person>
    <person id="191" depart="257.20" type="DEFAULT_PEDTYPE">
        <walk from="29033732" to="-185271779#4"/>
    </person>
    <person id="192" depart="257.60" type="DEFAULT_PEDTYPE">
        <walk from="998885380" to="23195804#0"/>
    </person>
    <person id="193" depart="258.00" type="DEFAULT_PEDTYPE">
        <walk from="655693841" to="28710934"/>
    </person>
    <person id="194" depart="262.00" type="DEFAULT_PEDTYPE">
        <walk from="23195803#2" to="28719125#0"/>
    </person>
    <person id="195" depart="263.00" type="DEFAULT_PEDTYPE">
        <walk from="-191979123#0" to="996364918"/>
    </person>
    <person id="196" depart="265.00" type="DEFAULT_PEDTYPE">
        <walk from="23195328#2" to="-184427426#3"/>
    </person>
    <person id="197" depart="268.20" type="DEFAULT_PEDTYPE">
        <walk from="23195338#1" to="997944687"/>
    </person>
    <person id="198" depart="268.40" type="DEFAULT_PEDTYPE">
        <walk from="655717650#0" to="1001467661"/>
    </person>
    <person id="199" depart="268.40" type="DEFAULT_PEDTYPE">
        <walk from="23195502#1" to="23195795"/>
    </person>
    <person id="200" depart="270.00" type="DEFAULT_PEDTYPE">
        <walk from="-522833746" to="23195752#2"/>
    </person>
    <person id="201" depart="272.80" type="DEFAULT_PEDTYPE">
        <walk from="998769529" to="1002422788#1"/>
    </person>
    <person id="202" depart="274.00" type="DEFAULT_PEDTYPE">
        <walk from="539483270" to="28718922#1"/>
    </person>
    <person id="203" depart="276.60" type="DEFAULT_PEDTYPE">
        <walk from="28710689" to="539419136"/>
    </person>
    <person id="204" depart="280.60" type="DEFAULT_PEDTYPE">
        <walk from="-28710755#0" to="190606085"/>
    </person>
    <person id="205" depart="284.80" type="DEFAULT_PEDTYPE">
        <walk from="-522833721" to="23195794#0"/>
    </person>
    <person id="206" depart="286.20" type="DEFAULT_PEDTYPE">
        <walk from="996364918" to="388909094"/>
    </person>
    <person id="207" depart="289.80" type="DEFAULT_PEDTYPE">
        <walk from="28999595#1" to="23195736"/>
    </person>
    <person id="208" depart="289.80" type="DEFAULT_PEDTYPE">
        <walk from="-23196319" to="1132162844#0"/>
    </person>
    <person id="209" depart="290.00" type="DEFAULT_PEDTYPE">
        <walk from="-522833746" to="190606085"/>
    </person>
    <person id="210" depart="290.20" type="DEFAULT_PEDTYPE">
        <walk from="522833721" to="28710755#2"/>
    </person>
    <person id="211" depart="293.80" type="DEFAULT_PEDTYPE">
        <walk from="1149437440" to="-191979121"/>
    </person>
    <person id="212" depart="294.20" type="DEFAULT_PEDTYPE">
        <walk from="28710751" to="23195502#1"/>
    </person>
    <person id="213" depart="297.40" type="DEFAULT_PEDTYPE">
        <walk from="192464423" to="461160629"/>
    </person>
    <person id="214" depart="299.60" type="DEFAULT_PEDTYPE">
        <walk from="-23195799#0" to="23195502#1"/>
    </person>
    <person id="215" depart="301.40" type="DEFAULT_PEDTYPE">
        <walk from="191959712#0" to="23195795"/>
    </person>
    <person id="216" depart="307.00" type="DEFAULT_PEDTYPE">
        <walk from="1144160275#1" to="539483278"/>
    </person>
    <person id="217" depart="308.20" type="DEFAULT_PEDTYPE">
        <walk from="28710934" to="539483278"/>
    </person>
    <person id="218" depart="308.40" type="DEFAULT_PEDTYPE">
        <walk from="1144160275#1" to="28709107#0"/>
    </person>
    <person id="219" depart="310.00" type="DEFAULT_PEDTYPE">
        <walk from="397927055#0" to="191979127#3"/>
    </person>
    <person id="220" depart="310.60" type="DEFAULT_PEDTYPE">
        <walk from="-998769538#0" to="28998662#1"/>
    </person>
    <person id="221" depart="311.00" type="DEFAULT_PEDTYPE">
        <walk from="993984189" to="193099645#0"/>
    </person>
    <person id="222" depart="316.00" type="DEFAULT_PEDTYPE">
        <walk from="1002422788#0" to="539419144"/>
    </person>
    <person id="223" depart="319.60" type="DEFAULT_PEDTYPE">
        <walk from="461160629" to="539419138"/>
    </person>
    <person id="224" depart="321.00" type="DEFAULT_PEDTYPE">
        <walk from="23195328#2" to="184427426#0"/>
    </person>
    <person id="225" depart="323.00" type="DEFAULT_PEDTYPE">
        <walk from="23195804#0" to="28718922#1"/>
    </person>
    <person id="226" depart="325.00" type="DEFAULT_PEDTYPE">
        <walk from="190606079#0" to="190606077#0"/>
    </person>
    <person id="227" depart="327.40" type="DEFAULT_PEDTYPE">
        <walk from="28709107#0" to="23195793"/>
    </person>
    <person id="228" depart="327.80" type="DEFAULT_PEDTYPE">
        <walk from="190606083" to="184427426#1"/>
    </person>
    <person id="229" depart="330.60" type="DEFAULT_PEDTYPE">
        <walk from="23195503" to="353382750#1"/>
    </person>
    <person id="230" depart="331.00" type="DEFAULT_PEDTYPE">
        <walk from="1144160275#1" to="-322548792#1"/>
    </person>
    <person id="231" depart="334.00" type="DEFAULT_PEDTYPE">
        <walk from="29033731" to="-522833753"/>
    </person>
    <person id="232" depart="336.40" type="DEFAULT_PEDTYPE">
        <walk from="191959714" to="1144160275#0"/>
    </person>
    <person id="233" depart="339.40" type="DEFAULT_PEDTYPE">
        <walk from="23195803#2" to="545477613#2"/>
    </person>
    <person id="234" depart="341.80" type="DEFAULT_PEDTYPE">
        <walk from="322548792#1" to="522833741#1"/>
    </person>
    <person id="235" depart="342.00" type="DEFAULT_PEDTYPE">
        <walk from="-191959706#0" to="1149942855"/>
    </person>